/*--------------------------------*- C++ -*----------------------------------*\
  =========                 |
  \\      /  F ield         | OpenFOAM: The Open Source CFD Toolbox
   \\    /   O peration     | Website:  https://openfoam.org
    \\  /    A nd           | Version:  7
     \\/     M anipulation  |
\*---------------------------------------------------------------------------*/
FoamFile
{
    version     2.0;
    format      ascii;
    class       featureEdgeMesh;
    location    "constant/triSurface";
    object      cylinder.eMesh;
}
// * * * * * * * * * * * * * * * * * * * * * * * * * * * * * * * * * * * * * //


// points:

400
(
(-0.00415 0.0263572 0.0024958)
(-0.00415 0.0264225 0.0016665)
(0.114704 0.0265122 0.0016114)
(0.114704 0.0264469 0.0024407)
(-0.00415 -0.0249214 0.0089738)
(-0.00415 -0.0246274 0.009752)
(0.114704 -0.0245377 0.0096969)
(0.114704 -0.0248318 0.0089187)
(-0.00415 -0.0016689 -0.0264248)
(-0.00415 -0.0024982 -0.0263596)
(0.114704 -0.0024085 -0.0264147)
(0.114704 -0.0015792 -0.02648)
(-0.00415 0.0209179 0.0162341)
(-0.00415 0.0214173 0.0155688)
(0.114704 0.021507 0.0155137)
(0.114704 0.0210075 0.0161789)
(-0.00415 0.0162242 0.0209278)
(-0.00415 0.0168734 0.0204076)
(0.114704 0.0169631 0.0203525)
(0.114704 0.0163139 0.0208726)
(-0.00415 0.0192976 0.0181312)
(-0.00415 0.0198575 0.0175159)
(0.114704 0.0199471 0.0174607)
(0.114704 0.0193873 0.018076)
(-0.00415 0.017506 0.0198674)
(-0.00415 0.0181213 0.0193075)
(0.114704 0.0182109 0.0192523)
(0.114704 0.0175957 0.0198122)
(-0.00415 0.0209179 -0.0162266)
(-0.00415 0.0203977 -0.0168758)
(0.114704 0.0204874 -0.0169309)
(0.114704 0.0210075 -0.0162817)
(-0.00415 -0.0168856 0.0204076)
(-0.00415 -0.0162364 0.0209278)
(0.114704 -0.0161468 0.0208726)
(0.114704 -0.016796 0.0203525)
(-0.00415 -0.0249214 -0.0089663)
(-0.00415 -0.0251909 -0.0081793)
(0.114704 -0.0251012 -0.0082344)
(0.114704 -0.0248318 -0.0090214)
(-0.00415 0.0260057 0.0049658)
(-0.00415 0.0261487 0.0041463)
(0.114704 0.0262384 0.0040911)
(0.114704 0.0260954 0.0049106)
(-0.00415 0.0203977 0.0168833)
(0.114704 0.0204874 0.0168282)
(-0.00415 -0.0049681 -0.0260081)
(-0.00415 -0.0057827 -0.0258393)
(0.114704 -0.0056931 -0.0258945)
(0.114704 -0.0048785 -0.0260632)
(-0.00415 0.012016 -0.0235909)
(-0.00415 0.0112689 -0.0239568)
(0.114704 0.0113585 -0.024012)
(0.114704 0.0121056 -0.023646)
(-0.00415 0.0264617 0.0008355)
(-0.00415 0.0264747 3.8e-06)
(0.114704 0.0265644 -5.14e-05)
(0.114704 0.0265514 0.0007804)
(-0.00415 -0.0008379 -0.026464)
(0.114704 -0.0007482 -0.0265192)
(-0.00415 0.0057705 0.0258469)
(-0.00415 0.0065794 0.0256527)
(0.114704 0.0066691 0.0255975)
(0.114704 0.0058602 0.0257917)
(-0.00415 0.0065794 -0.0256452)
(-0.00415 0.0057705 -0.0258393)
(0.114704 0.0058602 -0.0258945)
(0.114704 0.0066691 -0.0257003)
(-0.00415 -0.0251909 0.0081868)
(0.114704 -0.0251012 0.0081317)
(-0.00415 0.0256428 0.0065893)
(-0.00415 0.025837 0.0057804)
(0.114704 0.0259267 0.0057252)
(0.114704 0.0257325 0.0065341)
(-0.00415 -0.0181335 -0.0192999)
(-0.00415 -0.0187309 -0.018721)
(0.114704 -0.0186412 -0.0187762)
(0.114704 -0.0180438 -0.0193551)
(-0.00415 -0.0120282 0.0235984)
(-0.00415 -0.0112811 0.0239644)
(0.114704 -0.0111914 0.0239092)
(0.114704 -0.0119385 0.0235432)
(-0.00415 -0.0254355 0.0073917)
(0.114704 -0.0253458 0.0073365)
(-0.00415 0.0254233 0.0073917)
(0.114704 0.025513 0.0073365)
(-0.00415 0.0214173 -0.0155613)
(0.114704 0.021507 -0.0156164)
(-0.00415 -0.0175182 -0.0198598)
(0.114704 -0.0174286 -0.019915)
(-0.00415 0.0262659 0.0033227)
(0.114704 0.0263556 0.0032676)
(-0.00415 -0.0097544 -0.0246175)
(-0.00415 -0.0105229 -0.0242992)
(0.114704 -0.0104333 -0.0243543)
(0.114704 -0.0096647 -0.0246727)
(-0.00415 0.0105107 -0.0242992)
(-0.00415 0.0097421 -0.0246175)
(0.114704 0.0098318 -0.0246727)
(0.114704 0.0106004 -0.0243543)
(-0.00415 -0.0264868 3.8e-06)
(-0.00415 -0.0264739 0.0008355)
(0.114704 -0.0263842 0.0007804)
(0.114704 -0.0263972 -5.14e-05)
(-0.00415 -0.0105229 0.0243067)
(0.114704 -0.0104333 0.0242515)
(-0.00415 -0.007394 0.0254332)
(-0.00415 -0.0065916 0.0256527)
(0.114704 -0.006502 0.0255975)
(0.114704 -0.0073044 0.025378)
(-0.00415 -0.0254355 -0.0073842)
(-0.00415 -0.025655 -0.0065818)
(0.114704 -0.0255654 -0.0066369)
(0.114704 -0.0253458 -0.0074393)
(-0.00415 -0.0246274 -0.0097445)
(0.114704 -0.0245377 -0.0097996)
(-0.00415 -6.1e-06 0.0264846)
(-0.00415 0.0008257 0.0264716)
(0.114704 0.0009153 0.0264165)
(0.114704 8.36e-05 0.0264294)
(-0.00415 0.002486 -0.0263596)
(-0.00415 0.0016566 -0.0264248)
(0.114704 0.0017463 -0.02648)
(0.114704 0.0025756 -0.0264147)
(-0.00415 -0.0155712 0.0214272)
(0.114704 -0.0154815 0.0213721)
(-0.00415 -0.0239667 0.0112788)
(-0.00415 -0.0236007 0.0120258)
(0.114704 -0.0235111 0.0119707)
(0.114704 -0.023877 0.0112236)
(-0.00415 -0.0081892 0.0251886)
(0.114704 -0.0080995 0.0251334)
(-0.00415 -0.0239667 -0.0112712)
(-0.00415 -0.0243091 -0.010513)
(0.114704 -0.0242194 -0.0105682)
(0.114704 -0.023877 -0.0113264)
(-0.00415 0.0016566 0.0264324)
(-0.00415 0.002486 0.0263671)
(0.114704 0.0025756 0.0263119)
(0.114704 0.0017463 0.0263772)
(-0.00415 -0.013486 -0.0227894)
(-0.00415 -0.0141953 -0.0223548)
(0.114704 -0.0141056 -0.0224099)
(0.114704 -0.0133963 -0.0228446)
(-0.00415 0.0097421 0.024625)
(-0.00415 0.0105107 0.0243067)
(0.114704 0.0106004 0.0242515)
(0.114704 0.0098318 0.0245699)
(-0.00415 -0.0198697 -0.0175083)
(-0.00415 -0.02041 -0.0168758)
(0.114704 -0.0203203 -0.0169309)
(0.114704 -0.01978 -0.0175635)
(-0.00415 -0.0214296 -0.0155613)
(-0.00415 -0.0219079 -0.0148807)
(0.114704 -0.0218183 -0.0149358)
(0.114704 -0.0213399 -0.0156164)
(-0.00415 0.0251787 -0.0081793)
(-0.00415 0.0249092 -0.0089663)
(0.114704 0.0249989 -0.0090214)
(0.114704 0.0252684 -0.0082344)
(-0.00415 -0.003325 0.0262758)
(-0.00415 -0.0024982 0.0263671)
(0.114704 -0.0024085 0.0263119)
(0.114704 -0.0032354 0.0262207)
(-0.00415 -0.003325 -0.0262683)
(-0.00415 -0.0041486 -0.0261511)
(0.114704 -0.004059 -0.0262062)
(0.114704 -0.0032354 -0.0263234)
(-0.00415 -0.0187309 0.0187285)
(-0.00415 -0.0181335 0.0193075)
(0.114704 -0.0180438 0.0192523)
(0.114704 -0.0186412 0.0186734)
(-0.00415 0.0049559 -0.0260081)
(0.114704 0.0050456 -0.0260632)
(-0.00415 -0.0263694 0.0024958)
(-0.00415 -0.0262782 0.0033227)
(0.114704 -0.0261885 0.0032676)
(0.114704 -0.0262798 0.0024407)
(-0.00415 -0.0243091 0.0105206)
(0.114704 -0.0242194 0.0104654)
(-0.00415 0.0041364 -0.0261511)
(0.114704 0.0042261 -0.0262062)
(-0.00415 -0.0227993 0.0134836)
(-0.00415 -0.0223646 0.0141929)
(0.114704 -0.022275 0.0141378)
(0.114704 -0.0227096 0.0134285)
(-0.00415 -0.0209301 0.0162341)
(-0.00415 -0.02041 0.0168833)
(0.114704 -0.0203203 0.0168282)
(0.114704 -0.0208404 0.0161789)
(-0.00415 -0.0127634 0.0232091)
(0.114704 -0.0126737 0.023154)
(-0.00415 0.0033128 -0.0262683)
(0.114704 0.0034025 -0.0263234)
(-0.00415 -0.0057827 0.0258469)
(0.114704 -0.0056931 0.0257917)
(-0.00415 -0.0065916 -0.0256452)
(0.114704 -0.006502 -0.0257003)
(-0.00415 0.014183 0.0223623)
(-0.00415 0.0148783 0.0219056)
(0.114704 0.014968 0.0218504)
(0.114704 0.0142727 0.0223071)
(-0.00415 0.0218957 0.0148882)
(-0.00415 0.0223524 0.0141929)
(0.114704 0.0224421 0.0141378)
(0.114704 0.0219854 0.0148331)
(-0.00415 -0.0232115 0.012761)
(0.114704 -0.0231218 0.0127059)
(-0.00415 -0.0097544 0.024625)
(-0.00415 -0.0089762 0.0249191)
(0.114704 -0.0088865 0.0248639)
(0.114704 -0.0096647 0.0245699)
(-0.00415 -0.0193098 -0.0181236)
(0.114704 -0.0192202 -0.0181788)
(-0.00415 0.0264617 -0.000828)
(-0.00415 0.0264225 -0.001659)
(0.114704 0.0265122 -0.0017141)
(0.114704 0.0265514 -0.0008832)
(-0.00415 0.0263572 -0.0024883)
(-0.00415 0.0262659 -0.0033152)
(0.114704 0.0263556 -0.0033703)
(0.114704 0.0264469 -0.0025435)
(-0.00415 -0.0175182 0.0198674)
(0.114704 -0.0174286 0.0198122)
(-0.00415 0.012016 0.0235984)
(-0.00415 0.0127511 0.0232091)
(0.114704 0.0128408 0.023154)
(0.114704 0.0121056 0.0235432)
(-0.00415 0.014183 -0.0223548)
(-0.00415 0.0134737 -0.0227894)
(0.114704 0.0135634 -0.0228446)
(0.114704 0.0142727 -0.0224099)
(-0.00415 0.0081769 0.0251886)
(-0.00415 0.008964 0.0249191)
(0.114704 0.0090536 0.0248639)
(0.114704 0.0082666 0.0251334)
(-0.00415 0.0168734 -0.0204001)
(-0.00415 0.0162242 -0.0209202)
(0.114704 0.0163139 -0.0209754)
(0.114704 0.0169631 -0.0204552)
(-0.00415 0.0134737 0.022797)
(0.114704 0.0135634 0.0227418)
(-0.00415 0.0261487 -0.0041388)
(-0.00415 0.0260057 -0.0049583)
(0.114704 0.0260954 -0.0050134)
(0.114704 0.0262384 -0.0041939)
(-0.00415 0.0148783 -0.021898)
(0.114704 0.014968 -0.0219532)
(-0.00415 -0.0261609 0.0041463)
(0.114704 -0.0260713 0.0040911)
(-0.00415 0.017506 -0.0198598)
(0.114704 0.0175957 -0.019915)
(-0.00415 0.008964 -0.0249116)
(-0.00415 0.0081769 -0.025181)
(0.114704 0.0082666 -0.0252362)
(0.114704 0.0090536 -0.0249667)
(-0.00415 0.0033128 0.0262758)
(-0.00415 0.0041364 0.0261586)
(0.114704 0.0042261 0.0261035)
(0.114704 0.0034025 0.0262207)
(-0.00415 0.0235885 0.0120258)
(-0.00415 0.0239545 0.0112788)
(0.114704 0.0240441 0.0112236)
(0.114704 0.0236782 0.0119707)
(-0.00415 -0.0264347 -0.001659)
(-0.00415 -0.0264739 -0.000828)
(0.114704 -0.0263842 -0.0008832)
(0.114704 -0.0263451 -0.0017141)
(-0.00415 -0.0112811 -0.0239568)
(-0.00415 -0.0120282 -0.0235909)
(0.114704 -0.0119385 -0.023646)
(0.114704 -0.0111914 -0.024012)
(-0.00415 -0.0258492 0.0057804)
(-0.00415 -0.025655 0.0065893)
(0.114704 -0.0255654 0.0065341)
(0.114704 -0.0257596 0.0057252)
(-0.00415 0.0242968 0.0105206)
(0.114704 0.0243865 0.0104654)
(-0.00415 -0.0049681 0.0260156)
(-0.00415 -0.0041486 0.0261586)
(0.114704 -0.004059 0.0261035)
(0.114704 -0.0048785 0.0259604)
(-0.00415 0.0246152 0.009752)
(0.114704 0.0247048 0.0096969)
(-0.00415 0.0187187 -0.018721)
(-0.00415 0.0181213 -0.0192999)
(0.114704 0.0182109 -0.0193551)
(0.114704 0.0188084 -0.0187762)
(-0.00415 0.0192976 -0.0181236)
(0.114704 0.0193873 -0.0181788)
(-0.00415 -0.0260179 -0.0049583)
(-0.00415 -0.0261609 -0.0041388)
(0.114704 -0.0260713 -0.0041939)
(0.114704 -0.0259282 -0.0050134)
(-0.00415 -0.0081892 -0.025181)
(-0.00415 -0.0089762 -0.0249116)
(0.114704 -0.0088865 -0.0249667)
(0.114704 -0.0080995 -0.0252362)
(-0.00415 0.0227871 -0.0134761)
(-0.00415 0.0223524 -0.0141854)
(0.114704 0.0224421 -0.0142405)
(0.114704 0.0228767 -0.0135312)
(-0.00415 0.0254233 -0.0073842)
(0.114704 0.025513 -0.0074393)
(-0.00415 0.0155589 0.0214272)
(0.114704 0.0156486 0.0213721)
(-0.00415 -0.0148906 -0.021898)
(0.114704 -0.0148009 -0.0219532)
(-0.00415 -0.0155712 -0.0214197)
(0.114704 -0.0154815 -0.0214748)
(-0.00415 0.0227871 0.0134836)
(-0.00415 0.0231992 0.012761)
(0.114704 0.0232889 0.0127059)
(0.114704 0.0228767 0.0134285)
(-0.00415 -0.0008379 0.0264716)
(0.114704 -0.0007482 0.0264165)
(-0.00415 -0.0223646 -0.0141854)
(-0.00415 -0.0227993 -0.0134761)
(0.114704 -0.0227096 -0.0135312)
(0.114704 -0.022275 -0.0142405)
(-0.00415 0.025837 -0.0057729)
(-0.00415 0.0256428 -0.0065818)
(0.114704 0.0257325 -0.0066369)
(0.114704 0.0259267 -0.005828)
(-0.00415 -0.0016689 0.0264324)
(0.114704 -0.0015792 0.0263772)
(-0.00415 -0.0258492 -0.0057729)
(0.114704 -0.0257596 -0.005828)
(-0.00415 -0.0232115 -0.0127535)
(-0.00415 -0.0236007 -0.0120183)
(0.114704 -0.0235111 -0.0120734)
(0.114704 -0.0231218 -0.0128086)
(-0.00415 0.0127511 -0.0232016)
(0.114704 0.0128408 -0.0232567)
(-0.00415 -0.0168856 -0.0204001)
(0.114704 -0.016796 -0.0204552)
(-0.00415 0.0049559 0.0260156)
(0.114704 0.0050456 0.0259604)
(-0.00415 0.0239545 -0.0112712)
(-0.00415 0.0235885 -0.0120183)
(0.114704 0.0236782 -0.0120734)
(0.114704 0.0240441 -0.0113264)
(-0.00415 -0.0148906 0.0219056)
(-0.00415 -0.0141953 0.0223623)
(0.114704 -0.0141056 0.0223071)
(0.114704 -0.0148009 0.0218504)
(-0.00415 -0.0209301 -0.0162266)
(0.114704 -0.0208404 -0.0162817)
(-0.00415 0.0073818 -0.0254256)
(0.114704 0.0074715 -0.0254808)
(-0.00415 -0.0260179 0.0049658)
(0.114704 -0.0259282 0.0049106)
(-0.00415 -6.1e-06 -0.0264771)
(0.114704 8.36e-05 -0.0265322)
(-0.00415 0.0112689 0.0239644)
(0.114704 0.0113585 0.0239092)
(-0.00415 -0.0127634 -0.0232016)
(0.114704 -0.0126737 -0.0232567)
(-0.00415 -0.0264347 0.0016665)
(0.114704 -0.0263451 0.0016114)
(-0.00415 0.0251787 0.0081868)
(0.114704 0.0252684 0.0081317)
(-0.00415 0.0008257 -0.026464)
(0.114704 0.0009153 -0.0265192)
(-0.00415 -0.0214296 0.0155688)
(0.114704 -0.0213399 0.0155137)
(-0.00415 0.0218957 -0.0148807)
(0.114704 0.0219854 -0.0149358)
(-0.00415 -0.0162364 -0.0209202)
(0.114704 -0.0161468 -0.0209754)
(-0.00415 -0.007394 -0.0254256)
(0.114704 -0.0073044 -0.0254808)
(-0.00415 0.0249092 0.0089738)
(0.114704 0.0249989 0.0089187)
(-0.00415 0.0187187 0.0187285)
(0.114704 0.0188084 0.0186734)
(-0.00415 0.0155589 -0.0214197)
(0.114704 0.0156486 -0.0214748)
(-0.00415 0.0073818 0.0254332)
(0.114704 0.0074715 0.025378)
(-0.00415 -0.013486 0.022797)
(0.114704 -0.0133963 0.0227418)
(-0.00415 -0.0263694 -0.0024883)
(0.114704 -0.0262798 -0.0025435)
(-0.00415 -0.0219079 0.0148882)
(0.114704 -0.0218183 0.0148331)
(-0.00415 -0.0198697 0.0175159)
(-0.00415 -0.0193098 0.0181312)
(0.114704 -0.0192202 0.018076)
(0.114704 -0.01978 0.0174607)
(-0.00415 -0.0262782 -0.0033152)
(0.114704 -0.0261885 -0.0033703)
(-0.00415 0.0231992 -0.0127535)
(0.114704 0.0232889 -0.0128086)
(-0.00415 0.0246152 -0.0097445)
(0.114704 0.0247048 -0.0097996)
(-0.00415 0.0242968 -0.010513)
(0.114704 0.0243865 -0.0105682)
(-0.00415 0.0198575 -0.0175083)
(0.114704 0.0199471 -0.0175635)
)


// edges:

400
(
(0 1)
(2 3)
(4 5)
(6 7)
(8 9)
(10 11)
(12 13)
(14 15)
(16 17)
(18 19)
(20 21)
(22 23)
(24 25)
(26 27)
(28 29)
(30 31)
(32 33)
(34 35)
(36 37)
(38 39)
(40 41)
(42 43)
(44 12)
(15 45)
(46 47)
(48 49)
(50 51)
(52 53)
(54 55)
(56 57)
(58 8)
(11 59)
(60 61)
(62 63)
(64 65)
(66 67)
(68 4)
(7 69)
(70 71)
(72 73)
(74 75)
(76 77)
(78 79)
(80 81)
(82 68)
(69 83)
(84 70)
(73 85)
(86 28)
(31 87)
(88 74)
(77 89)
(90 0)
(3 91)
(92 93)
(94 95)
(96 97)
(98 99)
(100 101)
(102 103)
(79 104)
(105 80)
(106 107)
(108 109)
(110 111)
(112 113)
(114 36)
(39 115)
(116 117)
(118 119)
(120 121)
(122 123)
(33 124)
(125 34)
(126 127)
(128 129)
(130 106)
(109 131)
(132 133)
(134 135)
(136 137)
(138 139)
(140 141)
(142 143)
(144 145)
(146 147)
(148 149)
(150 151)
(152 153)
(154 155)
(156 157)
(158 159)
(160 161)
(162 163)
(164 165)
(166 167)
(168 169)
(170 171)
(65 172)
(173 66)
(165 46)
(49 166)
(174 175)
(176 177)
(178 126)
(129 179)
(172 180)
(181 173)
(5 178)
(179 6)
(182 183)
(184 185)
(186 187)
(188 189)
(190 78)
(81 191)
(180 192)
(193 181)
(107 194)
(195 108)
(47 196)
(197 48)
(198 199)
(200 201)
(202 203)
(204 205)
(206 182)
(185 207)
(208 209)
(210 211)
(212 148)
(151 213)
(214 215)
(216 217)
(13 202)
(205 14)
(218 219)
(220 221)
(75 212)
(213 76)
(215 218)
(221 216)
(169 222)
(223 170)
(224 225)
(226 227)
(209 130)
(131 210)
(228 229)
(230 231)
(232 233)
(234 235)
(236 237)
(238 239)
(240 198)
(201 241)
(242 243)
(244 245)
(225 240)
(241 226)
(233 144)
(147 234)
(246 228)
(231 247)
(175 248)
(249 176)
(250 236)
(239 251)
(252 253)
(254 255)
(256 257)
(258 259)
(260 261)
(262 263)
(137 256)
(259 138)
(264 265)
(266 267)
(268 269)
(270 271)
(272 273)
(274 275)
(261 276)
(277 262)
(278 279)
(280 281)
(93 268)
(271 94)
(276 282)
(283 277)
(279 160)
(163 280)
(284 285)
(286 287)
(288 284)
(287 289)
(290 291)
(292 293)
(294 295)
(296 297)
(298 299)
(300 301)
(302 156)
(159 303)
(9 164)
(167 10)
(199 304)
(305 200)
(141 306)
(307 142)
(306 308)
(309 307)
(310 311)
(312 313)
(314 116)
(119 315)
(316 317)
(318 319)
(192 120)
(123 193)
(153 316)
(319 154)
(320 321)
(322 323)
(324 314)
(315 325)
(326 290)
(293 327)
(328 329)
(330 331)
(229 332)
(333 230)
(127 206)
(207 128)
(334 88)
(89 335)
(317 328)
(331 318)
(257 336)
(337 258)
(332 50)
(53 333)
(111 326)
(327 112)
(203 310)
(313 204)
(338 339)
(340 341)
(342 343)
(344 345)
(149 346)
(347 150)
(253 348)
(349 254)
(219 242)
(245 220)
(248 350)
(351 249)
(243 320)
(323 244)
(329 132)
(135 330)
(352 58)
(59 353)
(354 224)
(227 355)
(194 278)
(281 195)
(265 100)
(103 266)
(269 356)
(357 270)
(161 324)
(325 162)
(71 40)
(43 72)
(358 174)
(177 359)
(360 84)
(85 361)
(362 352)
(353 363)
(364 186)
(189 365)
(366 86)
(87 367)
(145 354)
(355 146)
(299 366)
(367 300)
(368 334)
(335 369)
(308 368)
(369 309)
(196 370)
(371 197)
(372 360)
(361 373)
(25 374)
(375 26)
(356 140)
(143 357)
(237 376)
(377 238)
(370 294)
(297 371)
(282 372)
(373 283)
(378 232)
(235 379)
(343 380)
(381 344)
(295 92)
(95 296)
(382 264)
(267 383)
(384 364)
(365 385)
(386 387)
(388 389)
(380 190)
(191 381)
(376 246)
(247 377)
(41 90)
(91 42)
(350 272)
(275 351)
(374 20)
(23 375)
(222 32)
(35 223)
(97 252)
(255 98)
(187 386)
(389 188)
(346 152)
(155 347)
(390 382)
(383 391)
(55 214)
(217 56)
(311 260)
(263 312)
(336 60)
(63 337)
(392 298)
(301 393)
(183 384)
(385 184)
(37 110)
(113 38)
(348 64)
(67 349)
(339 392)
(393 340)
(61 378)
(379 62)
(387 168)
(171 388)
(291 390)
(391 292)
(104 208)
(211 105)
(117 136)
(139 118)
(157 394)
(395 158)
(121 362)
(363 122)
(394 396)
(397 395)
(133 114)
(115 134)
(17 24)
(27 18)
(398 288)
(289 399)
(285 250)
(251 286)
(304 16)
(19 305)
(29 398)
(399 30)
(101 358)
(359 102)
(1 54)
(57 2)
(51 96)
(99 52)
(321 302)
(303 322)
(124 342)
(345 125)
(396 338)
(341 397)
(273 82)
(83 274)
(21 44)
(45 22)
)

// * * * * * * * * * * * * * * * * * * * * * * * * * * * * * * * * * * * * * //


// ************************************************************************* //
