/*--------------------------------*- C++ -*----------------------------------*\
  =========                 |
  \\      /  F ield         | OpenFOAM: The Open Source CFD Toolbox
   \\    /   O peration     | Website:  https://openfoam.org
    \\  /    A nd           | Version:  7
     \\/     M anipulation  |
\*---------------------------------------------------------------------------*/
FoamFile
{
    version     2.0;
    format      ascii;
    class       featureEdgeMesh;
    location    "constant/triSurface";
    object      inlet.eMesh;
}
// * * * * * * * * * * * * * * * * * * * * * * * * * * * * * * * * * * * * * //


// points:

2862
(
(-0.00515 -0.0005503 -0.0015998)
(-0.00515 -0.0005358 -0.0016051)
(-0.00515 -0.0005327 -0.0016061)
(-0.00515 -0.0005208 -0.0016103)
(-0.00515 -0.0005151 -0.0016122)
(-0.00515 -0.0005505 -0.0015997)
(-0.00515 -0.0005504 -0.0015998)
(-0.00515 -0.0005813 -0.0015888)
(-0.00515 -0.0005508 -0.0015996)
(-0.00515 -0.0006787 -0.0015479)
(-0.00515 -0.0006503 -0.0015608)
(-0.00515 -0.000755 -0.0015095)
(-0.00515 -0.000769 -0.0015023)
(-0.00515 -0.0007925 -0.0014899)
(-0.00515 -0.0008052 -0.0014832)
(-0.00515 -0.0008899 -0.0014324)
(-0.00515 -0.0007116 -0.0011949)
(-0.00515 -0.0007 -0.0012017)
(-0.00515 -0.0006702 -0.0012197)
(-0.00515 -0.0006836 -0.0012117)
(-0.00515 -0.0006112 -0.0012524)
(-0.00515 -0.0005978 -0.0012589)
(-0.00515 -0.0005759 -0.0012695)
(-0.00515 -0.0005652 -0.0012747)
(-0.00515 -0.0005505 -0.0012817)
(-0.00515 -0.0004944 -0.0013052)
(-0.00515 -0.0004944 -0.0013053)
(-0.00515 -0.0003648 -0.0016548)
(-0.00515 -0.0003595 -0.0016559)
(-0.00515 -0.0002621 -0.0016724)
(-0.00515 -0.0002487 -0.0016744)
(-0.00515 -0.0002457 -0.0016747)
(-0.00515 -0.0002245 -0.0016777)
(-0.00515 -0.0002018 -0.0016807)
(-0.00515 -0.0001875 -0.0016827)
(-0.00515 -0.0001731 -0.0016841)
(-0.00515 -0.0001651 -0.001685)
(-0.00515 -0.0001329 -0.0016873)
(-0.00515 -0.0001128 -0.0016888)
(-0.00515 -0.0001041 -0.0016892)
(-0.00515 0.0001177 -0.0016863)
(-0.00515 0.0001482 -0.0016828)
(-0.00515 -0.0002044 -0.0013783)
(-0.00515 -0.0001951 -0.0013796)
(-0.00515 0.0001509 -0.0016825)
(-0.00515 0.0001675 -0.0016807)
(-0.00515 0.0001792 -0.0016795)
(-0.00515 0.0001829 -0.0016791)
(-0.00515 0.0001979 -0.0016775)
(-0.00515 0.0002107 -0.0016762)
(-0.00515 0.0002147 -0.0016758)
(-0.00515 0.0002412 -0.0016725)
(-0.00515 0.0002511 -0.001671)
(-0.00515 0.000254 -0.0016706)
(-0.00515 0.0002678 -0.001668)
(-0.00515 0.0002731 -0.0016671)
(-0.00515 0.000382 -0.0016462)
(-0.00515 0.0004062 -0.0016413)
(-0.00515 0.0004251 -0.001638)
(-0.00515 0.0004323 -0.0016366)
(-0.00515 3.66e-05 -0.0013905)
(-0.00515 4.53e-05 -0.0013902)
(-0.00515 0.0004921 -0.0016207)
(-0.00515 0.0005001 -0.0016188)
(-0.00515 0.000103 -0.0013871)
(-0.00515 8.77e-05 -0.0013882)
(-0.00515 0.0006219 -0.0015778)
(-0.00515 0.0006354 -0.0015732)
(-0.00515 0.0006377 -0.0015724)
(-0.00515 0.0006517 -0.0015677)
(-0.00515 0.0006607 -0.0015647)
(-0.00515 0.0001447 -0.0013833)
(-0.00515 0.0001565 -0.0013821)
(-0.00515 0.0007248 -0.0015371)
(-0.00515 0.0007448 -0.0015279)
(-0.00515 0.000768 -0.0015173)
(-0.00515 0.0007765 -0.0015135)
(-0.00515 0.000214 -0.0013743)
(-0.00515 0.0002359 -0.0013708)
(-0.00515 0.0003092 -0.001358)
(-0.00515 0.0002997 -0.00136)
(-0.00515 0.0003359 -0.0013521)
(-0.00515 0.0003599 -0.0013464)
(-0.00515 0.0003708 -0.0013438)
(-0.00515 0.0008943 -0.0014463)
(-0.00515 0.0008962 -0.0014451)
(-0.00515 0.0008998 -0.0014429)
(-0.00515 0.0009192 -0.0014304)
(-0.00515 0.0009194 -0.0014302)
(-0.00515 0.0009504 -0.0014104)
(-0.00515 0.0009685 -0.0013978)
(-0.00515 0.0009712 -0.001396)
(-0.00515 0.0009826 -0.0013878)
(-0.00515 0.0009962 -0.0013782)
(-0.00515 0.0010232 -0.0013582)
(-0.00515 0.0010442 -0.0013425)
(-0.00515 0.0010727 -0.0013199)
(-0.00515 0.0010769 -0.0013164)
(-0.00515 0.001092 -0.0013035)
(-0.00515 0.0003743 -0.0013429)
(-0.00515 0.000392 -0.0013382)
(-0.00515 0.0011603 -0.0012433)
(-0.00515 0.0011673 -0.0012365)
(-0.00515 0.0012158 -0.0011884)
(-0.00515 0.0012196 -0.0011843)
(-0.00515 0.0012293 -0.0011743)
(-0.00515 0.0004512 -0.0013214)
(-0.00515 0.0004642 -0.0013172)
(-0.00515 0.0004755 -0.0013135)
(-0.00515 0.0013322 -0.0010518)
(-0.00515 0.0013421 -0.0010388)
(-0.00515 0.0013439 -0.0010365)
(-0.00515 0.0005722 -0.0012768)
(-0.00515 0.0005619 -0.0012813)
(-0.00515 0.0014063 -0.0009511)
(-0.00515 0.0005809 -0.001273)
(-0.00515 0.0005882 -0.0012698)
(-0.00515 0.0005963 -0.0012662)
(-0.00515 0.0005936 -0.0012674)
(-0.00515 0.0014213 -0.0009297)
(-0.00515 0.0014296 -0.0009179)
(-0.00515 0.0006074 -0.0012609)
(-0.00515 0.0006416 -0.0012448)
(-0.00515 0.0006508 -0.0012404)
(-0.00515 0.0006431 -0.0012441)
(-0.00515 0.0006703 -0.0012306)
(-0.00515 0.0006848 -0.0012229)
(-0.00515 0.0014839 -0.000829)
(-0.00515 0.0014905 -0.0008173)
(-0.00515 0.0006868 -0.0012218)
(-0.00515 0.0007081 -0.0012104)
(-0.00515 0.0014987 -0.0008021)
(-0.00515 0.0007089 -0.00121)
(-0.00515 0.0007306 -0.0011973)
(-0.00515 0.0007463 -0.0011874)
(-0.00515 0.0015431 -0.0007173)
(-0.00515 0.0015444 -0.0007145)
(-0.00515 0.0015613 -0.0006768)
(-0.00515 0.0015675 -0.0006637)
(-0.00515 0.0015826 -0.0006321)
(-0.00515 0.001586 -0.000625)
(-0.00515 0.0009316 -0.0010462)
(-0.00515 0.0009434 -0.0010356)
(-0.00515 0.0009476 -0.0010318)
(-0.00515 0.0016209 -0.0005363)
(-0.00515 0.001628 -0.0005162)
(-0.00515 0.0016285 -0.0005148)
(-0.00515 0.0009946 -0.0009860001)
(-0.00515 0.0009946 -0.0009861001)
(-0.00515 0.0009849 -0.0009961)
(-0.00515 0.0010034 -0.0009768)
(-0.00515 0.0016477 -0.0004555)
(-0.00515 0.0016527 -0.0004376)
(-0.00515 0.0016641 -0.0003991)
(-0.00515 0.0016742 -0.0003536)
(-0.00515 0.0010169 -0.0009624)
(-0.00515 0.0010274 -0.0009503)
(-0.00515 0.0016743 -0.0003535)
(-0.00515 0.0010996 -0.0008613)
(-0.00515 0.0011124 -0.0008433)
(-0.00515 0.0016995 -0.0001763)
(-0.00515 0.0017003 -0.0001661)
(-0.00515 0.0017036 -3.29e-05)
(-0.00515 0.0017037 -4.5e-06)
(-0.00515 0.0017037 1.06e-05)
(-0.00515 0.0012472 -0.000614)
(-0.00515 0.0012482 -0.0006117)
(-0.00515 0.0012509 -0.0006053)
(-0.00515 0.0012667 -0.0005685)
(-0.00515 0.0012582 -0.000589)
(-0.00515 0.0017036 1.14e-05)
(-0.00515 0.0017036 1.36e-05)
(-0.00515 0.0016977 0.0001117)
(-0.00515 0.0016967 0.0001256)
(-0.00515 0.0012748 -0.0005489)
(-0.00515 0.0012683 -0.0005647)
(-0.00515 0.0012781 -0.0005407)
(-0.00515 0.0012808 -0.0005344)
(-0.00515 0.0012824 -0.0005305)
(-0.00515 0.0012889 -0.0005143)
(-0.00515 0.0012959 -0.0004969)
(-0.00515 0.0013102 -0.0004573)
(-0.00515 0.0016816 0.0002514)
(-0.00515 0.0016787 0.0002683)
(-0.00515 0.0016768 0.0002794)
(-0.00515 0.0013123 -0.0004511)
(-0.00515 0.001322 -0.0004211)
(-0.00515 0.0013134 -0.0004476)
(-0.00515 0.0016619 0.0003461)
(-0.00515 0.0016582 0.0003613)
(-0.00515 0.0013287 -0.0004009)
(-0.00515 0.0015969 0.0005674)
(-0.00515 0.0015937 0.0005762)
(-0.00515 0.0013656 -0.0002525)
(-0.00515 0.0013621 -0.0002685)
(-0.00515 0.0013831 -0.0001425)
(-0.00515 0.0013814 -0.0001569)
(-0.00515 0.0013849 -0.000128)
(-0.00515 0.0013865 -0.0001157)
(-0.00515 0.0013881 -0.0001027)
(-0.00515 0.001391 -3.92e-05)
(-0.00515 0.0013912 -3.05e-05)
(-0.00515 0.0013916 -1.04e-05)
(-0.00515 0.0013917 3.19e-05)
(-0.00515 0.0013917 2.01e-05)
(-0.00515 0.0014506 0.0008771)
(-0.00515 0.0014482 0.0008829)
(-0.00515 0.0013051 0.0010889)
(-0.00515 0.0012928 0.0011023)
(-0.00515 0.0012906 0.0011047)
(-0.00515 0.0012858 0.00111)
(-0.00515 0.0012783 0.0011184)
(-0.00515 0.001273 0.0011245)
(-0.00515 0.0013882 0.0001064)
(-0.00515 0.0013877 0.00011)
(-0.00515 0.0012598 0.0011396)
(-0.00515 0.0012578 0.0011419)
(-0.00515 0.0012415 0.0011593)
(-0.00515 0.0013853 0.0001369)
(-0.00515 0.0013851 0.0001384)
(-0.00515 0.001385 0.0001394)
(-0.00515 0.0012281 0.001173)
(-0.00515 0.0012279 0.0011731)
(-0.00515 0.0012123 0.0011896)
(-0.00515 0.001384 0.0001495)
(-0.00515 0.0013801 0.0001893)
(-0.00515 0.0013785 0.0002002)
(-0.00515 0.001376 0.0002176)
(-0.00515 0.0013744 0.0002278)
(-0.00515 0.0013729 0.0002365)
(-0.00515 0.0013741 0.0002293)
(-0.00515 0.0013727 0.0002374)
(-0.00515 0.0011494 0.0012461)
(-0.00515 0.0011377 0.0012561)
(-0.00515 0.0010728 0.0013107)
(-0.00515 0.0010716 0.0013117)
(-0.00515 0.0010109 0.0013585)
(-0.00515 0.000999 0.0013669)
(-0.00515 0.0009939 0.0013704)
(-0.00515 0.0009573 0.0013952)
(-0.00515 0.0009462 0.001403)
(-0.00515 0.0008839 0.0014425)
(-0.00515 0.0013134 0.0004509)
(-0.00515 0.001307 0.0004678)
(-0.00515 0.000882 0.0014437)
(-0.00515 0.0012987 0.0004898)
(-0.00515 0.0012982 0.0004912)
(-0.00515 0.0012811 0.0005299)
(-0.00515 0.0012742 0.0005453)
(-0.00515 0.0012799 0.0005327)
(-0.00515 0.0012476 0.0005993)
(-0.00515 0.0012514 0.0005924)
(-0.00515 0.0012457 0.0006036)
(-0.00515 0.0012451 0.0006047)
(-0.00515 0.0012312 0.0006305)
(-0.00515 0.0012254 0.000641)
(-0.00515 0.0011952 0.0006941)
(-0.00515 0.0011905 0.0007018)
(-0.00515 0.0011793 0.0007202)
(-0.00515 0.0011806 0.000718)
(-0.00515 0.0011746 0.0007278)
(-0.00515 0.0008347 0.0014725)
(-0.00515 0.0008075 0.0014875)
(-0.00515 0.0007897 0.001497)
(-0.00515 0.0007654 0.0015096)
(-0.00515 0.0007653 0.0015097)
(-0.00515 0.0007448 0.0015202)
(-0.00515 0.0007439 0.0015207)
(-0.00515 0.0007306 0.0015271)
(-0.00515 0.0007255 0.0015294)
(-0.00515 0.0006429 0.0015668)
(-0.00515 0.0006235 0.0015745)
(-0.00515 0.0005994 0.0015833)
(-0.00515 0.0005831 0.0015891)
(-0.00515 0.0005665 0.0015947)
(-0.00515 0.0005661 0.0015948)
(-0.00515 0.0005158 0.0016125)
(-0.00515 0.0004983 0.0016185)
(-0.00515 0.0004902 0.0016211)
(-0.00515 0.0004743 0.0016263)
(-0.00515 0.0004431 0.0016348)
(-0.00515 0.0004267 0.001639)
(-0.00515 0.0003819 0.0016492)
(-0.00515 0.0003798 0.0016497)
(-0.00515 0.0003738 0.0016509)
(-0.00515 0.0003697 0.0016517)
(-0.00515 0.0003622 0.0016532)
(-0.00515 0.0003544 0.0016548)
(-0.00515 0.0003497 0.0016557)
(-0.00515 0.000335 0.0016586)
(-0.00515 0.0003325 0.0016591)
(-0.00515 0.0003096 0.0016642)
(-0.00515 0.0002966 0.0016673)
(-0.00515 0.0010656 0.000879)
(-0.00515 0.0010729 0.0008702)
(-0.00515 0.0002612 0.0016743)
(-0.00515 0.0002504 0.0016757)
(-0.00515 0.0002227 0.0016782)
(-0.00515 0.0010494 0.0008987)
(-0.00515 0.0010562 0.0008905)
(-0.00515 0.0001892 0.0016818)
(-0.00515 0.0001796 0.0016832)
(-0.00515 0.0010321 0.0009196)
(-0.00515 0.0010442 0.000905)
(-0.00515 0.0001577 0.0016858)
(-0.00515 0.000157 0.0016859)
(-0.00515 0.0001374 0.0016874)
(-0.00515 0.0010281 0.0009244)
(-0.00515 0.0010211 0.0009328)
(-0.00515 0.0010221 0.0009316)
(-0.00515 0.001014 0.0009408)
(-0.00515 0.0001111 0.0016903)
(-0.00515 0.0001103 0.0016904)
(-0.00515 0.0010058 0.0009498)
(-0.00515 0.0009974 0.0009583)
(-0.00515 0.000981 0.0009749)
(-0.00515 0.0009919 0.0009639)
(-0.00515 0.0009443 0.0010124)
(-0.00515 0.0009416 0.0010151)
(-0.00515 1.53e-05 0.001694)
(-0.00515 -7e-07 0.0016935)
(-0.00515 -1.07e-05 0.0016927)
(-0.00515 -1.68e-05 0.0016924)
(-0.00515 0.0008504 0.0010953)
(-0.00515 0.0008647 0.0010838)
(-0.00515 0.0008463 0.0010986)
(-0.00515 0.0008384 0.001105)
(-0.00515 0.0007889 0.0011427)
(-0.00515 0.0007772 0.0011509)
(-0.00515 0.0007693 0.0011564)
(-0.00515 0.0007405 0.0011755)
(-0.00515 0.0007478 0.0011708)
(-0.00515 0.0007404 0.0011755)
(-0.00515 0.0006803 0.0012107)
(-0.00515 0.000687 0.0012071)
(-0.00515 0.0006738 0.0012139)
(-0.00515 0.0006687 0.0012169)
(-0.00515 0.0006218 0.0012419)
(-0.00515 -3.11e-05 0.0016921)
(-0.00515 -0.0001093 0.0016911)
(-0.00515 -0.0001201 0.00169)
(-0.00515 -0.0001265 0.0016894)
(-0.00515 -0.0002304 0.0016784)
(-0.00515 -0.0002419 0.0016767)
(-0.00515 -0.0002475 0.0016759)
(-0.00515 -0.0002499 0.0016756)
(-0.00515 -0.0002969 0.0016676)
(-0.00515 0.0006204 0.0012425)
(-0.00515 0.0006134 0.0012457)
(-0.00515 0.0005863 0.0012583)
(-0.00515 0.0005984 0.0012527)
(-0.00515 0.0005769 0.0012626)
(-0.00515 0.0005627 0.001269)
(-0.00515 0.0005737 0.0012641)
(-0.00515 -0.0003125 0.0016644)
(-0.00515 -0.0003147 0.001664)
(-0.00515 0.0005304 0.001283)
(-0.00515 0.0005534 0.0012731)
(-0.00515 -0.0003229 0.0016621)
(-0.00515 -0.0003234 0.0016623)
(-0.00515 0.0005211 0.001287)
(-0.00515 0.0004803 0.0013035)
(-0.00515 -0.0004523 0.0016278)
(-0.00515 -0.0004589 0.0016257)
(-0.00515 -0.0004716 0.0016218)
(-0.00515 0.0004738 0.0013058)
(-0.00515 0.0004152 0.0013257)
(-0.00515 0.0004255 0.001322)
(-0.00515 0.0004151 0.0013257)
(-0.00515 0.000415 0.0013258)
(-0.00515 0.0003461 0.001345)
(-0.00515 -0.0005868 0.0015805)
(-0.00515 -0.0006008 0.0015744)
(-0.00515 -0.0006093 0.0015707)
(-0.00515 -0.0006348 0.0015594)
(-0.00515 -0.0006462 0.0015541)
(-0.00515 -0.0006525 0.0015512)
(-0.00515 0.0003355 0.0013479)
(-0.00515 0.0003325 0.0013487)
(-0.00515 0.0003246 0.0013503)
(-0.00515 -0.0006653 0.0015451)
(-0.00515 -0.0006779 0.0015394)
(-0.00515 -0.0008012 0.0014763)
(-0.00515 -0.0008205 0.0014654)
(-0.00515 0.0002539 0.0013654)
(-0.00515 0.0002466 0.0013667)
(-0.00515 0.0001158 0.0013853)
(-0.00515 9.31e-05 0.0013871)
(-0.00515 0.0001018 0.0013864)
(-0.00515 7.5e-05 0.0013886)
(-0.00515 7.03e-05 0.0013889)
(-0.00515 -0.0008206 0.0014653)
(-0.00515 -0.0008425 0.0014528)
(-0.00515 6.24e-05 0.0013895)
(-0.00515 4.83e-05 0.0013902)
(-0.00515 -6.04e-05 0.001392)
(-0.00515 -7.42e-05 0.0013915)
(-0.00515 -8.87e-05 0.001391)
(-0.00515 -0.000103 0.0013904)
(-0.00515 -0.0011771 0.0012017)
(-0.00515 -0.0011829 0.001196)
(-0.00515 -0.0012137 0.0011651)
(-0.00515 -0.0012138 0.001165)
(-0.00515 -0.0001165 0.0013899)
(-0.00515 -0.0001172 0.0013899)
(-0.00515 -0.0012564 0.0011213)
(-0.00515 -0.0012658 0.0011109)
(-0.00515 -0.0012968 0.0010755)
(-0.00515 -0.0012991 0.0010729)
(-0.00515 -0.0001672 0.0013853)
(-0.00515 -0.0001737 0.0013844)
(-0.00515 -0.0001765 0.001384)
(-0.00515 -0.0013401 0.0010238)
(-0.00515 -0.0013492 0.0010123)
(-0.00515 -0.0013898 0.0009575)
(-0.00515 -0.0014064 0.0009341)
(-0.00515 -0.0014147 0.0009224)
(-0.00515 -0.0002214 0.001377)
(-0.00515 -0.0002097 0.001379)
(-0.00515 -0.0014278 0.0009041)
(-0.00515 -0.0014291 0.0009023)
(-0.00515 -0.0014982 0.000781)
(-0.00515 -0.001504 0.0007698)
(-0.00515 -0.000263 0.0013689)
(-0.00515 -0.0002522 0.0013711)
(-0.00515 -0.0002633 0.0013688)
(-0.00515 -0.0002778 0.0013658)
(-0.00515 -0.0002872 0.0013639)
(-0.00515 -0.0002878 0.0013638)
(-0.00515 -0.0002893 0.0013634)
(-0.00515 -0.0002879 0.0013637)
(-0.00515 -0.000302 0.0013601)
(-0.00515 -0.0002975 0.0013613)
(-0.00515 -0.0003022 0.00136)
(-0.00515 -0.0003035 0.0013597)
(-0.00515 -0.0003147 0.0013565)
(-0.00515 -0.000392 0.0013336)
(-0.00515 -0.0003909 0.001334)
(-0.00515 -0.0003925 0.0013334)
(-0.00515 -0.0015308 0.0007116)
(-0.00515 -0.0015399 0.0006897)
(-0.00515 -0.0015782 0.0005945)
(-0.00515 -0.0015784 0.0005938)
(-0.00515 -0.0015921 0.0005541)
(-0.00515 -0.0015969 0.0005421)
(-0.00515 -0.000512 0.0012876)
(-0.00515 -0.0005124 0.0012874)
(-0.00515 -0.0005238 0.0012819)
(-0.00515 -0.000582 0.0012555)
(-0.00515 -0.0005904 0.0012514)
(-0.00515 -0.000598 0.0012474)
(-0.00515 -0.0005916 0.0012508)
(-0.00515 -0.0005987 0.001247)
(-0.00515 -0.0006078 0.0012421)
(-0.00515 -0.0006139 0.0012388)
(-0.00515 -0.0006093 0.0012413)
(-0.00515 -0.00069 0.0011952)
(-0.00515 -0.0006967 0.0011912)
(-0.00515 -0.0007013 0.0011884)
(-0.00515 -0.0007198 0.0011772)
(-0.00515 -0.0007052 0.0011861)
(-0.00515 -0.0007705 0.0011443)
(-0.00515 -0.0007592 0.0011524)
(-0.00515 -0.000819 0.0011098)
(-0.00515 -0.0008264 0.0011044)
(-0.00515 -0.0008059 0.0011193)
(-0.00515 -0.0016363 0.0004079)
(-0.00515 -0.0016385 0.0003982)
(-0.00515 -0.0016548 0.0003239)
(-0.00515 -0.0016549 0.0003231)
(-0.00515 -0.0016699 0.0002177)
(-0.00515 -0.001673 0.0001978)
(-0.00515 -0.0016744 0.0001889)
(-0.00515 -0.0016858 8.68e-05)
(-0.00515 -0.0016862 7.12e-05)
(-0.00515 -0.0016863 7.02e-05)
(-0.00515 -0.0016862 3.75e-05)
(-0.00515 -0.0016851 2.11e-05)
(-0.00515 -0.0016847 1.49e-05)
(-0.00515 -0.0008705 0.0010708)
(-0.00515 -0.0008609 0.0010783)
(-0.00515 -0.000887 0.0010573)
(-0.00515 -0.0009041 0.0010429)
(-0.00515 -0.0009777 0.0009777)
(-0.00515 -0.0009935 0.0009623)
(-0.00515 -0.0009935 0.0009622)
(-0.00515 -0.0010074 0.0009485)
(-0.00515 -0.0010236 0.0009319)
(-0.00515 -0.0010019 0.0009541)
(-0.00515 -0.0010386 0.0009162)
(-0.00515 -0.001045 0.0009094)
(-0.00515 -0.0010535 0.0008998)
(-0.00515 -0.0010624 0.0008898)
(-0.00515 -0.001066 0.0008857)
(-0.00515 -0.0010692 0.0008819)
(-0.00515 -0.0016695 -0.0002286)
(-0.00515 -0.0016679 -0.0002379)
(-0.00515 -0.0016651 -0.0002527)
(-0.00515 -0.0016648 -0.0002543)
(-0.00515 -0.0013575 -0.0002922)
(-0.00515 -0.0013598 -0.000279)
(-0.00515 -0.0010933 0.0008528)
(-0.00515 -0.0010863 0.0008612)
(-0.00515 -0.0010956 0.0008498)
(-0.00515 -0.0011045 0.0008383)
(-0.00515 -0.0013734 -0.000193)
(-0.00515 -0.0013747 -0.0001809)
(-0.00515 -0.001376 -0.0001677)
(-0.00515 -0.0013764 -0.0001599)
(-0.00515 -0.0013766 -0.000155)
(-0.00515 -0.0013795 -0.0001036)
(-0.00515 -0.0013797 -9.49e-05)
(-0.00515 -0.0013806 -8.38e-05)
(-0.00515 -0.0013806 -7.9e-05)
(-0.00515 -0.0013811 -4.01e-05)
(-0.00515 -0.0013811 -2.82e-05)
(-0.00515 -0.001381 -2.39e-05)
(-0.00515 -0.0011465 0.0007809)
(-0.00515 -0.001157 0.0007653)
(-0.00515 -0.0011956 0.0007033)
(-0.00515 -0.0012024 0.0006911)
(-0.00515 -0.0012147 0.0006679)
(-0.00515 -0.0012219 0.0006538)
(-0.00515 -0.001236 0.000626)
(-0.00515 -0.0012517 0.0005928)
(-0.00515 -0.0012657 0.0005601)
(-0.00515 -0.0012631 0.0005664)
(-0.00515 -0.0012688 0.0005531)
(-0.00515 -0.001286 0.0005092)
(-0.00515 -0.0012804 0.0005248)
(-0.00515 -0.0013119 0.000429)
(-0.00515 -0.0013135 0.0004235)
(-0.00515 -0.001321 0.0003972)
(-0.00515 -0.0013194 0.0004031)
(-0.00515 -0.0013228 0.000391)
(-0.00515 -0.0013238 0.0003869)
(-0.00515 -0.0013523 0.0002681)
(-0.00515 -0.0013503 0.0002781)
(-0.00515 -0.0013528 0.0002651)
(-0.00515 -0.0013547 0.0002543)
(-0.00515 -0.0013577 0.0002361)
(-0.00515 -0.0013562 0.0002455)
(-0.00515 -0.0013586 0.0002307)
(-0.00515 -0.0013603 0.000219)
(-0.00515 -0.0013628 0.0002027)
(-0.00515 -0.0013612 0.0002136)
(-0.00515 -0.0013671 0.0001713)
(-0.00515 -0.0013682 0.0001623)
(-0.00515 -0.0013699 0.0001477)
(-0.00515 -0.0013711 0.0001374)
(-0.00515 -0.0013714 0.0001348)
(-0.00515 -0.001374 0.0001043)
(-0.00515 -0.0013734 0.0001125)
(-0.00515 -0.0013779 4.54e-05)
(-0.00515 -0.0013764 6.94e-05)
(-0.00515 -0.0013789 3.02e-05)
(-0.00515 -0.00138 8.1e-06)
(-0.00515 -0.0013791 2.49e-05)
(-0.00515 -0.00138 7.3e-06)
(-0.00515 -0.0015886 -0.000574)
(-0.00515 -0.0015821 -0.0005966)
(-0.00515 -0.00157 -0.0006291)
(-0.00515 -0.0015668 -0.0006367)
(-0.00515 -0.0015969 -0.000547)
(-0.00515 -0.0016041 -0.0005255)
(-0.00515 -0.0016191 -0.0004738)
(-0.00515 -0.0016245 -0.0004546)
(-0.00515 -0.0016299 -0.0004347)
(-0.00515 -0.0016354 -0.0004147)
(-0.00515 -0.0016352 -0.0004152)
(-0.00515 -0.0013248 -0.0010483)
(-0.00515 -0.0013172 -0.0010578)
(-0.00515 -0.00131 -0.0010666)
(-0.00515 -0.0012982 -0.0010802)
(-0.00515 -0.0012855 -0.0010948)
(-0.00515 -0.0012835 -0.001097)
(-0.00515 -0.0012648 -0.0011191)
(-0.00515 -0.0012961 -0.0005067)
(-0.00515 -0.0012908 -0.0005203)
(-0.00515 -0.0012834 -0.0005388)
(-0.00515 -0.0012503 -0.0006075)
(-0.00515 -0.0012539 -0.0006007)
(-0.00515 -0.0012374 -0.0006341)
(-0.00515 -0.0012454 -0.0006176)
(-0.00515 -0.0012369 -0.0006351)
(-0.00515 -0.000953 -0.0013912)
(-0.00515 -0.000939 -0.0014009)
(-0.00515 -0.000937 -0.0014023)
(-0.00515 -0.0009031 -0.0014242)
(-0.00515 -0.0007481 -0.0011722)
(-0.00515 -0.0007503 -0.0011707)
(-0.00515 -0.0007602 -0.0011638)
(-0.00515 -0.0007935 -0.0011404)
(-0.00515 -0.000798 -0.0011371)
(-0.00515 -0.0008362 -0.0011085)
(-0.00515 -0.0008416 -0.001104)
(-0.00515 -0.001187 -0.0007226)
(-0.00515 -0.0011779 -0.0007366)
(-0.00515 -0.0011074 -0.0008358)
(-0.00515 -0.0011101 -0.0008324)
(-0.00515 -0.0010743 -0.0008776)
(-0.00515 -0.0010659 -0.0008873)
(-0.00515 -0.001059 -0.0008954)
(-0.00515 -0.0010563 -0.0008986)
(-0.00515 -0.0010491 -0.0009069)
(-0.00515 -0.0008803 -0.0010714)
(-0.00515 -0.0008859 -0.0010666)
(-0.00515 -0.0008945 -0.0010592)
(-0.00515 -0.0009227 -0.0010347)
(-0.00515 -0.0009245 -0.0010332)
(-0.00515 -0.0009929 -0.0009678)
(-0.00515 -0.0010029 -0.0009573)
(-0.00515 -0.0010115 -0.0009482)
(-0.00515 -0.0005473 -0.001601)
(-0.00515 -0.0005354 -0.0016052)
(-0.00515 -0.0005204 -0.0016104)
(-0.00515 -0.0005199 -0.0016106)
(-0.00515 -0.0005694 -0.0015932)
(-0.00515 -0.0005036 -0.001616)
(-0.00515 -0.000502 -0.0016165)
(-0.00515 -0.0004884 -0.0016208)
(-0.00515 -0.0004799 -0.0016234)
(-0.00515 -0.0004732 -0.0016255)
(-0.00515 -0.0004679 -0.001627)
(-0.00515 -0.0004553 -0.0016307)
(-0.00515 -0.0004521 -0.0016316)
(-0.00515 -0.0004362 -0.0016358)
(-0.00515 -0.0006025 -0.0015808)
(-0.00515 -0.0005969 -0.0015831)
(-0.00515 -0.0005898 -0.0015857)
(-0.00515 -0.0004266 -0.0016384)
(-0.00515 -0.0004253 -0.0016388)
(-0.00515 -0.0004234 -0.0016392)
(-0.00515 -0.0006042 -0.0015801)
(-0.00515 -0.0006181 -0.0015744)
(-0.00515 -0.0006051 -0.0015798)
(-0.00515 -0.0006363 -0.0015672)
(-0.00515 -0.0006333 -0.0015684)
(-0.00515 -0.0006386 -0.0015662)
(-0.00515 -0.0006377 -0.0015666)
(-0.00515 -0.0006733 -0.0015503)
(-0.00515 -0.0006845 -0.001545)
(-0.00515 -0.0007092 -0.0015328)
(-0.00515 -0.0007015 -0.0015367)
(-0.00515 -0.0007385 -0.001518)
(-0.00515 -0.0007176 -0.0015287)
(-0.00515 -0.0007461 -0.0015141)
(-0.00515 -0.0007647 -0.0015045)
(-0.00515 -0.0007856 -0.0014936)
(-0.00515 -0.0008009 -0.0014855)
(-0.00515 -0.000825 -0.0014721)
(-0.00515 -0.0008124 -0.0014792)
(-0.00515 -0.0008402 -0.0014632)
(-0.00515 -0.0008374 -0.001465)
(-0.00515 -0.0008532 -0.0014553)
(-0.00515 -0.0008508 -0.0014568)
(-0.00515 -0.0008681 -0.0014461)
(-0.00515 -0.0008541 -0.0014548)
(-0.00515 -0.000874 -0.0014424)
(-0.00515 -0.0008709 -0.0014444)
(-0.00515 -0.0008847 -0.0014356)
(-0.00515 -0.0007226 -0.0011883)
(-0.00515 -0.0007292 -0.0011841)
(-0.00515 -0.0007365 -0.0011796)
(-0.00515 -0.0007161 -0.0011921)
(-0.00515 -0.000704 -0.0011994)
(-0.00515 -0.0006877 -0.001209)
(-0.00515 -0.0006924 -0.0012062)
(-0.00515 -0.000679 -0.0012145)
(-0.00515 -0.0006677 -0.0012214)
(-0.00515 -0.0006579 -0.001227)
(-0.00515 -0.0006633 -0.0012238)
(-0.00515 -0.0006521 -0.0012303)
(-0.00515 -0.0006548 -0.0012287)
(-0.00515 -0.0006379 -0.001238)
(-0.00515 -0.0006398 -0.0012369)
(-0.00515 -0.0006284 -0.0012432)
(-0.00515 -0.000617 -0.0012492)
(-0.00515 -0.0006208 -0.0012473)
(-0.00515 -0.0006002 -0.0012577)
(-0.00515 -0.0005845 -0.0012652)
(-0.00515 -0.0005912 -0.001262)
(-0.00515 -0.0005705 -0.0012721)
(-0.00515 -0.0005718 -0.0012714)
(-0.00515 -0.0005637 -0.0012755)
(-0.00515 -0.0005645 -0.0012751)
(-0.00515 -0.0005334 -0.0012894)
(-0.00515 -0.0005415 -0.0012856)
(-0.00515 -0.00055 -0.0012819)
(-0.00515 -0.000526 -0.0012925)
(-0.00515 -0.0005313 -0.0012902)
(-0.00515 -0.0004993 -0.0013034)
(-0.00515 -0.0005084 -0.0012996)
(-0.00515 -0.0005099 -0.0012991)
(-0.00515 -0.0004983 -0.0013037)
(-0.00515 -0.0004992 -0.0013034)
(-0.00515 -0.0005112 -0.0012986)
(-0.00515 -0.0004819 -0.0013099)
(-0.00515 -0.0004843 -0.001309)
(-0.00515 -0.000466 -0.0013155)
(-0.00515 -0.0004722 -0.0013132)
(-0.00515 -0.0004481 -0.0013213)
(-0.00515 -0.0004541 -0.0013193)
(-0.00515 -0.0004286 -0.0013279)
(-0.00515 -0.0004351 -0.0013258)
(-0.00515 -0.0004424 -0.0013235)
(-0.00515 -0.0004251 -0.0013293)
(-0.00515 -0.0004139 -0.0013331)
(-0.00515 -0.0003973 -0.0013386)
(-0.00515 -0.0004041 -0.0013362)
(-0.00515 -0.0004099 -0.0013344)
(-0.00515 -0.000392 -0.00134)
(-0.00515 -0.0003955 -0.0013389)
(-0.00515 -0.0003661 -0.001347)
(-0.00515 -0.0003864 -0.0013416)
(-0.00515 -0.0003875 -0.0013414)
(-0.00515 -0.0003633 -0.0013478)
(-0.00515 -0.0003451 -0.0013526)
(-0.00515 -0.0003576 -0.0013493)
(-0.00515 -0.0003389 -0.0013541)
(-0.00515 -0.0003424 -0.0013532)
(-0.00515 -0.0003201 -0.0013583)
(-0.00515 -0.0003347 -0.0013551)
(-0.00515 -0.0003364 -0.0013548)
(-0.00515 -0.0003185 -0.0013588)
(-0.00515 -0.0003024 -0.0013622)
(-0.00515 -0.0003114 -0.0013602)
(-0.00515 -0.0002898 -0.0013646)
(-0.00515 -0.0002942 -0.0013637)
(-0.00515 -0.0002784 -0.0013666)
(-0.00515 -0.0002834 -0.0013657)
(-0.00515 -0.0002593 -0.0013698)
(-0.00515 -0.0002632 -0.0013691)
(-0.00515 -0.0002419 -0.0013726)
(-0.00515 -0.0002512 -0.0013711)
(-0.00515 -0.0004141 -0.0016417)
(-0.00515 -0.0004048 -0.0016443)
(-0.00515 -0.0003992 -0.0016459)
(-0.00515 -0.0003887 -0.001649)
(-0.00515 -0.0003827 -0.0016507)
(-0.00515 -0.0003777 -0.001652)
(-0.00515 -0.0003754 -0.0016526)
(-0.00515 -0.0003613 -0.0016555)
(-0.00515 -0.0003469 -0.0016582)
(-0.00515 -0.0003449 -0.0016585)
(-0.00515 -0.000337 -0.0016599)
(-0.00515 -0.0003276 -0.0016615)
(-0.00515 -0.0003266 -0.0016616)
(-0.00515 -0.0003264 -0.0016617)
(-0.00515 -0.0003156 -0.0016635)
(-0.00515 -0.0003131 -0.0016639)
(-0.00515 -0.0003083 -0.0016648)
(-0.00515 -0.0003029 -0.0016657)
(-0.00515 -0.0002974 -0.0016667)
(-0.00515 -0.0002892 -0.0016681)
(-0.00515 -0.0002861 -0.0016686)
(-0.00515 -0.0002803 -0.0016695)
(-0.00515 -0.0002667 -0.0016717)
(-0.00515 -0.0002665 -0.0016717)
(-0.00515 -0.000249 -0.0016743)
(-0.00515 -0.0002482 -0.0016744)
(-0.00515 -0.0002108 -0.0016795)
(-0.00515 -0.0001901 -0.0016823)
(-0.00515 -0.0001812 -0.0016834)
(-0.00515 -0.0001629 -0.0016852)
(-0.00515 -0.0001523 -0.001686)
(-0.00515 -0.0001475 -0.0016863)
(-0.00515 -0.0001123 -0.0016888)
(-0.00515 -9.92e-05 -0.0016894)
(-0.00515 -7.8e-05 -0.0016909)
(-0.00515 -7.76e-05 -0.0016909)
(-0.00515 -7.66e-05 -0.001691)
(-0.00515 -6.99e-05 -0.0016914)
(-0.00515 -5.92e-05 -0.0016918)
(-0.00515 -5.24e-05 -0.0016921)
(-0.00515 -4.41e-05 -0.0016923)
(-0.00515 -3.22e-05 -0.0016925)
(-0.00515 -2.76e-05 -0.0016926)
(-0.00515 -2.74e-05 -0.0016926)
(-0.00515 -1.93e-05 -0.0016923)
(-0.00515 -1.92e-05 -0.0016923)
(-0.00515 -1.75e-05 -0.0016922)
(-0.00515 -3.3e-06 -0.0016912)
(-0.00515 3.2e-06 -0.0016909)
(-0.00515 6.7e-06 -0.0016908)
(-0.00515 4.09e-05 -0.0016901)
(-0.00515 -0.0002296 -0.0013746)
(-0.00515 4.84e-05 -0.0016901)
(-0.00515 5.72e-05 -0.0016902)
(-0.00515 7.56e-05 -0.00169)
(-0.00515 -0.0002143 -0.0013769)
(-0.00515 -0.0002219 -0.0013757)
(-0.00515 -0.0002246 -0.0013753)
(-0.00515 7.95e-05 -0.0016894)
(-0.00515 8.13e-05 -0.0016895)
(-0.00515 8.6e-05 -0.0016894)
(-0.00515 8.71e-05 -0.0016892)
(-0.00515 9.94e-05 -0.001688)
(-0.00515 0.0001075 -0.0016873)
(-0.00515 0.0001341 -0.0016846)
(-0.00515 0.0001449 -0.0016833)
(-0.00515 -0.0002028 -0.0013786)
(-0.00515 -0.000189 -0.0013805)
(-0.00515 0.0001665 -0.0016808)
(-0.00515 0.0001725 -0.0016802)
(-0.00515 0.0001824 -0.0016792)
(-0.00515 0.0001932 -0.0016781)
(-0.00515 0.0001967 -0.0016777)
(-0.00515 0.0002113 -0.0016761)
(-0.00515 0.0002302 -0.001674)
(-0.00515 0.000243 -0.0016723)
(-0.00515 0.0002585 -0.0016698)
(-0.00515 -0.0001846 -0.0013811)
(-0.00515 0.0002789 -0.001666)
(-0.00515 0.000288 -0.0016647)
(-0.00515 0.0002943 -0.0016635)
(-0.00515 0.0002968 -0.0016632)
(-0.00515 0.0003022 -0.0016621)
(-0.00515 0.00031 -0.0016609)
(-0.00515 0.0003257 -0.001658)
(-0.00515 0.0003319 -0.0016569)
(-0.00515 0.0003433 -0.0016547)
(-0.00515 0.0003471 -0.0016541)
(-0.00515 0.0003484 -0.0016538)
(-0.00515 0.0003589 -0.0016514)
(-0.00515 0.0003737 -0.0016479)
(-0.00515 -8.58e-05 -0.0013881)
(-0.00515 -8.85e-05 -0.0013877)
(-0.00515 -0.0001798 -0.0013818)
(-0.00515 -1.28e-05 -0.0013917)
(-0.00515 -1.91e-05 -0.0013917)
(-0.00515 -2.97e-05 -0.0013918)
(-0.00515 0.0003768 -0.0016472)
(-0.00515 0.0003967 -0.0016432)
(-0.00515 1.2e-05 -0.0013913)
(-0.00515 8.1e-06 -0.0013912)
(-0.00515 -6.4e-06 -0.0013916)
(-0.00515 0.0004063 -0.0016413)
(-0.00515 0.0004287 -0.0016373)
(-0.00515 0.0004384 -0.0016352)
(-0.00515 0.0004437 -0.0016337)
(-0.00515 0.0004553 -0.0016301)
(-0.00515 2.79e-05 -0.0013908)
(-0.00515 1.9e-05 -0.001391)
(-0.00515 0.0004596 -0.0016289)
(-0.00515 3.22e-05 -0.0013906)
(-0.00515 4.26e-05 -0.0013903)
(-0.00515 5.7e-05 -0.0013898)
(-0.00515 0.0004675 -0.0016268)
(-0.00515 0.0004769 -0.0016245)
(-0.00515 0.0004797 -0.0016238)
(-0.00515 0.0004823 -0.0016231)
(-0.00515 7.49e-05 -0.0013889)
(-0.00515 6.77e-05 -0.0013892)
(-0.00515 6.08e-05 -0.0013896)
(-0.00515 0.0004986 -0.0016192)
(-0.00515 8.34e-05 -0.0013884)
(-0.00515 0.0005024 -0.0016182)
(-0.00515 0.0005166 -0.0016142)
(-0.00515 0.00053 -0.0016104)
(-0.00515 0.0005444 -0.001606)
(-0.00515 0.0005485 -0.0016047)
(-0.00515 0.0005663 -0.0015986)
(-0.00515 0.0005732 -0.0015958)
(-0.00515 0.0005844 -0.0015916)
(-0.00515 0.0005925 -0.0015885)
(-0.00515 9.77e-05 -0.0013875)
(-0.00515 0.0001166 -0.0013861)
(-0.00515 0.0001104 -0.0013865)
(-0.00515 0.0001243 -0.0013854)
(-0.00515 0.0001197 -0.0013858)
(-0.00515 0.0006117 -0.0015815)
(-0.00515 0.0006182 -0.0015791)
(-0.00515 0.0001428 -0.0013835)
(-0.00515 0.0006254 -0.0015766)
(-0.00515 0.0006425 -0.0015709)
(-0.00515 0.0001451 -0.0013833)
(-0.00515 0.0001611 -0.0013817)
(-0.00515 0.0006723 -0.0015602)
(-0.00515 0.0006826 -0.001556)
(-0.00515 0.0006988 -0.0015493)
(-0.00515 0.0007004 -0.0015486)
(-0.00515 0.0007008 -0.0015484)
(-0.00515 0.0007211 -0.0015388)
(-0.00515 0.0001699 -0.0013806)
(-0.00515 0.0001671 -0.0013808)
(-0.00515 0.0001613 -0.0013817)
(-0.00515 0.0007274 -0.0015359)
(-0.00515 0.0001883 -0.001378)
(-0.00515 0.0007539 -0.0015238)
(-0.00515 0.0001919 -0.0013775)
(-0.00515 0.0002061 -0.0013755)
(-0.00515 0.0001948 -0.001377)
(-0.00515 0.0002095 -0.0013749)
(-0.00515 0.0002088 -0.001375)
(-0.00515 0.000207 -0.0013753)
(-0.00515 0.00021 -0.0013749)
(-0.00515 0.0007631 -0.0015195)
(-0.00515 0.0007718 -0.0015156)
(-0.00515 0.0002136 -0.0013743)
(-0.00515 0.0007823 -0.0015106)
(-0.00515 0.0007904 -0.0015068)
(-0.00515 0.0007995 -0.001502)
(-0.00515 0.0002337 -0.0013712)
(-0.00515 0.0002432 -0.0013698)
(-0.00515 0.0008102 -0.0014965)
(-0.00515 0.0008109 -0.0014961)
(-0.00515 0.00082 -0.0014909)
(-0.00515 0.000824 -0.0014886)
(-0.00515 0.0008396 -0.0014793)
(-0.00515 0.0008401 -0.001479)
(-0.00515 0.0008415 -0.0014781)
(-0.00515 0.0008541 -0.0014705)
(-0.00515 0.0008614 -0.0014662)
(-0.00515 0.0008651 -0.0014639)
(-0.00515 0.0002553 -0.0013678)
(-0.00515 0.0002768 -0.0013643)
(-0.00515 0.0002723 -0.001365)
(-0.00515 0.000289 -0.0013622)
(-0.00515 0.0002785 -0.0013639)
(-0.00515 0.0003008 -0.0013598)
(-0.00515 0.0003157 -0.0013567)