/*--------------------------------*- C++ -*----------------------------------*\
| =========                 |                                                 |
| \\      /  F ield         | foam-extend: Open Source CFD                    |
|  \\    /   O peration     | Version:     3.2                                |
|   \\  /    A nd           | Web:         http://www.foam-extend.org         |
|    \\/     M anipulation  | For copyright notice see file Copyright         |
\*---------------------------------------------------------------------------*/
FoamFile
{
    version     2.0;
    format      ascii;
    class       dictionary;
    object      immersedBoundaryDict;
}
// * * * * * * * * * * * * * * * * * * * * * * * * * * * * * * * * * * * * * //

IbName          needle;

Layersfactor    1.;
SourceStrength  1.;
IbMoving        true;
rho             rho;

IbMotionCoeffs
    {
        IbMotionType    tabulatedIbMotion;
   
        tabulatedIbMotionCoeffs
        {
   
            origin      (0. 0. 0.);// -0.00180782);
            centerOfMass (0. 0. 0.);
            rotOriginCoM true;
   
        }
    }
// ************************************************************************* //
