/*--------------------------------*- C++ -*----------------------------------*\
  =========                 |
  \\      /  F ield         | OpenFOAM: The Open Source CFD Toolbox
   \\    /   O peration     | Website:  https://openfoam.org
    \\  /    A nd           | Version:  7
     \\/     M anipulation  |
\*---------------------------------------------------------------------------*/
FoamFile
{
    version     2.0;
    format      ascii;
    class       featureEdgeMesh;
    location    "constant/triSurface";
    object      nozzlle2.eMesh;
}
// * * * * * * * * * * * * * * * * * * * * * * * * * * * * * * * * * * * * * //


// points:

792
(
(-0.00068 4.99e-05 -7.69e-05)
(-0.00068 -8.41e-05 6.95e-05)
(-0.00068 3.55e-05 -8.6e-05)
(-0.00068 7.53e-05 5.21e-05)
(-1.74e-05 9.37e-05 2.93e-05)
(-0.0005219 -9.34e-05 5.74e-05)
(-1.74e-05 6.56e-05 7.87e-05)
(-0.0003986 7.22e-05 -5.62e-05)
(-0.0004124 6.68e-05 -6.4e-05)
(-0.0004121 6.63e-05 -6.43e-05)
(-1.74e-05 2.96e-05 -9.87e-05)
(-1.74e-05 3.42e-05 9.5e-05)
(-0.0007216 -5.38e-05 -8.8e-05)
(-1.74e-05 8.88e-05 -3.98e-05)
(-1.74e-05 -1.59e-05 0.0001026)
(-0.0005317 8.6e-05 -2.37e-05)
(-1.74e-05 6.87e-05 -7.26e-05)
(-7.6e-06 0.0001111 5.52e-05)
(-7.4e-06 0.0001028 7.27e-05)
(-8.2e-06 7.24e-05 -6.92e-05)
(-8.4e-06 -0.0001078 -3.04e-05)
(-8.2e-06 -0.0001046 4.11e-05)
(-7.8e-06 -0.000106 4.09e-05)
(-8.8e-06 -9.98e-05 -5.51e-05)
(-6.4e-06 5.44e-05 -9.34e-05)
(-8.3e-06 -9.76e-05 5.58e-05)
(-8.1e-06 -0.0001266 6.17e-05)
(-1.74e-05 9.38e-05 2.91e-05)
(-1.75e-05 -0.0001078 -3.51e-05)
(-0.00068 4.01e-05 -8.43e-05)
(-0.00068 -1.9e-05 -9.76e-05)
(-1.74e-05 7.46e-05 6.84e-05)
(-0.0007225 7.45e-05 5.11e-05)
(-0.0007209 -9.76e-05 -4.85e-05)
(-1.74e-05 8e-05 6.12e-05)
(-0.0007229 6.61e-05 -5.94e-05)
(-1.74e-05 -0.0001078 -3.51e-05)
(-0.0009975 6.3e-05 -4.25e-05)
(-0.0009981 6.93e-05 -2.98e-05)
(-0.0009974 6.52e-05 -3.77e-05)
(-0.0009974 7.33e-05 -1.36e-05)
(-0.0009977 7.23e-05 -1.73e-05)
(-0.000997 6.99e-05 -2.77e-05)
(-0.000998 7.32e-05 2.18e-05)
(-0.0009999 7.4e-05 1.89e-05)
(-0.0009994 6e-05 -4.91e-05)
(-0.0009989 -0.0001109 9.2e-06)
(-0.0009976 -9.99e-05 -3.93e-05)
(-0.0009969 7.54e-05 -2e-07)
(-0.0009984 7.48e-05 -2.1e-06)
(-0.0009982 -0.0001083 -2.16e-05)
(-0.0009967 -0.0001099 -8.2e-06)
(-0.0009978 7.45e-05 1.37e-05)
(-0.0009993 7.45e-05 1.14e-05)
(-0.0009972 -0.0001103 1.2e-05)
(-0.0009985 -0.0001031 -3.48e-05)
(-0.0010007 6.44e-05 -3.98e-05)
(-0.0009988 -0.0001108 2.5e-06)
(-0.000999 7.17e-05 -2.12e-05)
(-0.0009979 -0.0001087 -1.99e-05)
(-0.0010011 7.22e-05 -1.72e-05)
(-0.000999 7.53e-05 3.1e-06)
(-0.0009975 -0.0001087 2.19e-05)
(-0.0009988 7.44e-05 -4.9e-06)
(-0.0009978 -3.71e-05 9.48e-05)
(-0.0009979 5.8e-06 9.4e-05)
(-0.0009983 3.46e-05 8.13e-05)
(-0.0009982 7.4e-06 9.37e-05)
(-0.0009973 5.92e-05 5.52e-05)
(-0.0009974 4.88e-05 7.05e-05)
(-0.0009973 3.2e-05 8.29e-05)
(-0.0009978 7.18e-05 2.7e-05)
(-0.0009978 6.96e-05 3.41e-05)
(-0.0009993 7.04e-05 3.11e-05)
(-0.0009976 -5.96e-05 8.65e-05)
(-0.0009998 4.03e-05 7.59e-05)
(-0.0009978 4.11e-05 7.54e-05)
(-0.0009994 -8.41e-05 6.99e-05)
(-0.0009983 -8.28e-05 7.06e-05)
(-0.0009993 -9.15e-05 6.07e-05)
(-0.0009979 -9.31e-05 5.68e-05)
(-0.0009985 -6.45e-05 8.48e-05)
(-0.0009971 -6.83e-05 8.23e-05)
(-0.0009988 -3.87e-05 9.45e-05)
(-0.0009982 -5.6e-05 8.83e-05)
(-0.0009992 -6.99e-05 8.11e-05)
(-0.0009993 3.49e-05 8.11e-05)
(-0.0010002 5.93e-05 5.57e-05)
(-0.0009977 -2.32e-05 -8.92e-05)
(-0.0009968 -7.6e-06 -8.91e-05)
(-0.0009985 -1.04e-05 -8.9e-05)
(-0.0009981 9.8e-06 -8.43e-05)
(-0.0009984 -3.38e-05 -8.79e-05)
(-0.0009974 -4.14e-05 -8.69e-05)
(-0.0009979 -4.29e-05 -8.65e-05)
(-0.000998 1.52e-05 -8.26e-05)
(-0.0009994 2.19e-05 -8.02e-05)
(-0.0009974 2.46e-05 -7.97e-05)
(-0.0009981 -5.9e-06 9.62e-05)
(-0.0009978 -1.33e-05 9.62e-05)
(-0.0009968 -1.6e-06 9.53e-05)
(-0.0010005 -5.21e-05 -8.25e-05)
(-0.0009996 1.2e-05 -8.35e-05)
(-0.0009981 -6.25e-05 -7.77e-05)
(-0.0009993 -6.47e-05 -7.63e-05)
(-0.0010005 -9.5e-06 -8.81e-05)
(-0.0009996 -3.58e-05 -8.73e-05)
(-0.0009976 -5.22e-05 -8.3e-05)
(-0.0009992 -6.5e-06 -8.76e-05)
(-0.0009986 3.22e-05 -7.49e-05)
(-0.0010008 3.01e-05 -7.61e-05)
(-0.0009978 3.77e-05 -7.15e-05)
(-0.0009963 -0.000104 -3.33e-05)
(-0.0010009 -0.0001043 -3.16e-05)
(-0.0009982 -0.0001052 -2.87e-05)
(-0.0009983 -9.82e-05 -4.21e-05)
(-0.0009999 -9.89e-05 -4.14e-05)
(-0.0010001 -4.91e-05 9.09e-05)
(-0.0009979 -8.86e-05 6.44e-05)
(-0.0010001 -6.73e-05 8.32e-05)
(-0.0009981 -8.63e-05 6.76e-05)
(-0.001 -8.75e-05 6.55e-05)
(-0.0009999 -5.66e-05 8.79e-05)
(-0.0009999 -6.02e-05 8.64e-05)
(-0.0009995 4.59e-05 7.23e-05)
(-0.0009992 6.77e-05 3.96e-05)
(-0.0009991 6e-05 5.4e-05)
(-0.0009993 7.24e-05 2.42e-05)
(-0.0010003 6.35e-05 -4.15e-05)
(-0.0009989 6.69e-05 -3.51e-05)
(-0.0009984 7.42e-05 -1.04e-05)
(-0.0009995 5.47e-05 -5.58e-05)
(-0.000996 7.44e-05 -8.2e-06)
(-0.000998 5.68e-05 -5.35e-05)
(-0.0009979 -0.0001066 2.96e-05)
(-0.0009972 -9.88e-05 4.93e-05)
(-0.0009996 -9.74e-05 5.08e-05)
(-0.0009982 -0.0001099 1.49e-05)
(-0.0009979 -0.00011 -3.4e-06)
(-0.0009981 -0.0001098 -5.7e-06)
(-0.0009993 7e-06 -8.51e-05)
(-0.0009982 -7.15e-05 -7.18e-05)
(-0.0009969 -7.27e-05 -7.13e-05)
(-0.0009977 -8.67e-05 -5.89e-05)
(-0.0009992 1.92e-05 -8.15e-05)
(-0.0009989 2.07e-05 -8.08e-05)
(-0.000999 -9.23e-05 -5.33e-05)
(-0.0009992 3.7e-05 -7.22e-05)
(-0.0010006 1.78e-05 -8.22e-05)
(-0.0009977 -1.23e-05 -8.92e-05)
(-0.0009983 -8.32e-05 -6.27e-05)
(-0.0009996 -9.09e-05 -5.51e-05)
(-0.0009986 -9.56e-05 -4.59e-05)
(-0.0010001 -7.56e-05 -6.9e-05)
(-0.0010016 -9.28e-05 -5.14e-05)
(-0.0009984 -9.38e-05 -4.95e-05)
(-0.0010012 6.98e-05 -2.8e-05)
(-0.0009994 -0.00011 -1.19e-05)
(-0.001 -0.00011 -5.7e-06)
(-0.0009994 -0.0001016 -3.69e-05)
(-0.0009999 -0.0001056 -2.78e-05)
(-0.0009996 -8.55e-05 -6.06e-05)
(-0.0010001 -9.46e-05 -4.77e-05)
(-0.0009992 -1.5e-06 9.53e-05)
(-0.0009987 -2.91e-05 9.6e-05)
(-0.0009976 -1.71e-05 9.62e-05)
(-0.0010001 -2.01e-05 9.62e-05)
(-0.0010006 -0.0001101 -1.2e-06)
(-0.0009999 -0.0001083 2.39e-05)
(-0.0010001 -0.0001063 3.48e-05)
(-0.0009966 -0.0001063 3.58e-05)
(-0.0009982 -0.0001065 3.38e-05)
(-0.0009997 -0.0001048 3.95e-05)
(-0.0009993 -0.0001092 1.79e-05)
(-0.0010002 -0.0001102 3e-07)
(-0.0009981 -0.0001013 4.49e-05)
(-0.001001 -9.95e-05 4.76e-05)
(-0.0009997 -0.0001099 1.44e-05)
(-0.0010004 -4e-06 9.59e-05)
(-0.0009969 -2.61e-05 9.62e-05)
(-0.0010021 -2.83e-05 9.62e-05)
(-0.0009993 -1.68e-05 9.63e-05)
(-0.0009975 -0.0001035 4.23e-05)
(-0.0010007 -0.0001028 4.27e-05)
(-0.0010007 -0.00011 -8.6e-06)
(-0.0010001 -0.0001084 -2.09e-05)
(-2.05e-05 9.37e-05 2.56e-05)
(-0.00068 3.56e-05 -8.6e-05)
(-0.00068 2.88e-05 -8.89e-05)
(-0.0006801 3.57e-05 -8.6e-05)
(-0.00068 -8.42e-05 6.95e-05)
(-1.74e-05 -0.0001074 -3.57e-05)
(-1.74e-05 -0.0001078 -3.47e-05)
(-0.0007203 -0.0001054 3.23e-05)
(-1.74e-05 9.38e-05 2.94e-05)
(-0.0006801 7.53e-05 5.22e-05)
(-1.74e-05 3.43e-05 9.5e-05)
(-1.75e-05 3.43e-05 9.5e-05)
(-1.74e-05 6.57e-05 7.87e-05)
(-1.75e-05 6.56e-05 7.87e-05)
(-0.00068 4.01e-05 -8.42e-05)
(-0.00068 3.99e-05 -8.43e-05)
(-0.00068 4.99e-05 -7.7e-05)
(-0.00068 7.53e-05 5.22e-05)
(-1.74e-05 6.88e-05 -7.25e-05)
(-1.74e-05 9.38e-05 2.95e-05)
(-1.75e-05 7.46e-05 6.84e-05)
(-0.0007229 8.67e-05 -7.9e-06)
(-0.0007225 7.44e-05 5.11e-05)
(-0.0007229 6.61e-05 -5.93e-05)
(-0.0007209 -9.76e-05 -4.84e-05)
(-0.0007215 -5.39e-05 -8.8e-05)
(-0.0010001 -0.0001066 3.22e-05)
(-0.0007208 -9.76e-05 -4.84e-05)
(-1.04e-05 -1.75e-05 0.0001569)
(-1.73e-05 8.07e-05 5.9e-05)
(-8e-06 -0.0001097 -3.41e-05)
(-8.2e-06 -0.000109 -3.33e-05)
(-1.05e-05 -0.0001072 -3.4e-05)
(-1.04e-05 -9.92e-05 -5.65e-05)
(-9e-06 -0.0001003 -5.62e-05)
(-8.1e-06 -0.0001249 6.09e-05)
(-1.73e-05 9.37e-05 2.93e-05)
(-0.0001103 5.39e-05 0.0004954)
(-0.0001103 0 0.0004983)
(-0.0001103 -0.0003016 -0.0003967)
(-0.0001103 -0.0002569 -0.000427)
(-0.0001103 -0.0004802 -0.0001333)
(-0.0001103 -0.0004629 -0.0001845)
(-0.0001103 -0.0004976 -2.7e-05)
(-0.0001103 -0.0004918 -8.06e-05)
(-0.0001103 -0.0002092 -0.0004523)
(-0.0001103 -0.0003798 -0.0003226)
(-0.0001103 -0.0003427 -0.0003618)
(-0.0001103 -0.0001591 -0.0004723)
(-0.0001103 -0.0004125 -0.0002797)
(-0.0001103 -0.0003427 0.0003618)
(-0.0001103 -0.0003798 0.0003226)
(-0.0001103 -0.0003016 0.0003967)
(-0.0001103 0 -0.0004983)
(-0.0001103 5.39e-05 -0.0004954)
(-0.0001103 -0.0001071 -0.0004867)
(-0.0001103 -5.39e-05 -0.0004954)
(-0.0001103 -0.0004403 -0.0002334)
(-0.0001103 -0.0004403 0.0002334)
(-0.0001103 -0.0004629 0.0001845)
(-0.0001103 -0.0001591 0.0004723)
(-0.0001103 -0.0002092 0.0004523)
(-0.0001103 -0.0004918 8.06e-05)
(-0.0001103 -0.0004976 2.7e-05)
(-0.0001103 -0.0004802 0.0001333)
(-0.0001103 -0.0002569 0.000427)
(-0.0001103 -0.0001071 0.0004867)
(-0.0001103 -0.0004125 0.0002797)
(-0.0001103 -5.39e-05 0.0004954)
(-0.0001103 0.0004802 -0.0001333)
(-0.0001103 0.0004918 -8.06e-05)
(-0.0001103 0.0003016 -0.0003967)
(-0.0001103 0.0003427 -0.0003618)
(-0.0001103 0.0004629 -0.0001845)
(-0.0001103 0.0004125 -0.0002797)
(-0.0001103 0.0004403 -0.0002334)
(-0.0001103 0.0002092 0.0004523)
(-0.0001103 0.0001591 0.0004723)
(-0.0001103 0.0004403 0.0002334)
(-0.0001103 0.0004125 0.0002797)
(-0.0001103 0.0002569 -0.000427)
(-0.0001103 0.0003798 0.0003226)
(-0.0001103 0.0003427 0.0003618)
(-0.0001103 0.0003016 0.0003967)
(-0.0001103 0.0002092 -0.0004523)
(-0.0001103 0.0001071 0.0004867)
(-0.0001103 0.0003798 -0.0003226)
(-0.0001103 0.0002569 0.000427)
(-0.0001103 0.0001591 -0.0004723)
(-0.0001103 0.0004918 8.06e-05)
(-0.0001103 0.0004802 0.0001333)
(-0.0001103 0.0001071 -0.0004867)
(-0.0001103 0.0004976 -2.7e-05)
(-0.0001103 0.0004976 2.7e-05)
(-0.0001103 0.0004629 0.0001845)
(-0.000998 6.83e-05 -3.2e-05)
(-0.0009985 6.12e-05 -4.69e-05)
(-0.0009989 7.46e-05 8.4e-06)
(-0.0009984 -0.0001112 6.7e-06)
(-0.0009965 6.4e-05 -4.01e-05)
(-0.0009991 7.42e-05 1.73e-05)
(-0.0009981 7.1e-05 -2.39e-05)
(-0.0009985 7.5e-05 5.8e-06)
(-0.0009981 3.2e-06 9.47e-05)
(-0.0009983 5.17e-05 6.64e-05)
(-0.0009983 5.28e-05 6.48e-05)
(-0.0009974 4.97e-05 6.94e-05)
(-0.0009984 1.08e-05 9.3e-05)
(-0.0009983 2.96e-05 8.43e-05)
(-0.0009983 6.84e-05 3.78e-05)
(-0.0009983 7.12e-05 2.9e-05)
(-0.0009989 -3.31e-05 9.51e-05)
(-0.0009993 5.46e-05 6.25e-05)
(-0.0009981 -8.04e-05 7.19e-05)
(-0.0009988 -7.82e-05 7.38e-05)
(-0.0009986 -3.12e-05 9.55e-05)
(-0.0009986 -5.27e-05 8.94e-05)
(-0.0009984 -4.51e-05 9.23e-05)
(-0.0009985 -4.28e-05 9.34e-05)
(-0.0009988 3.65e-05 7.96e-05)
(-0.0009986 -6.29e-05 8.55e-05)
(-0.0009991 5.81e-05 5.86e-05)
(-0.0009988 5.71e-05 6.01e-05)
(-0.000999 -3.1e-05 -8.82e-05)
(-0.0009986 1.58e-05 9.15e-05)
(-0.0009983 2.05e-05 8.98e-05)
(-0.0009986 8e-07 9.5e-05)
(-0.0009981 -9.1e-06 9.62e-05)
(-0.0009988 1.36e-05 9.24e-05)
(-0.0009995 -5.79e-05 -7.95e-05)
(-0.0009991 -4.7e-06 -8.74e-05)
(-0.0009987 -4.9e-05 -8.4e-05)
(-0.0009989 -2.6e-05 -8.86e-05)
(-0.0010008 -3.87e-05 -8.69e-05)
(-0.0009988 4.18e-05 -6.78e-05)
(-0.0009983 4.04e-05 -6.9e-05)
(-0.0009984 2.71e-05 -7.83e-05)
(-0.0009989 4.42e-05 -6.62e-05)
(-0.0009988 -9.47e-05 5.42e-05)
(-0.0009995 -7.24e-05 7.93e-05)
(-0.0009989 -7.55e-05 7.64e-05)
(-0.001 9.9e-06 9.31e-05)
(-0.0009987 4.26e-05 7.43e-05)
(-0.0009977 2.51e-05 8.7e-05)
(-0.0009987 6.6e-05 4.29e-05)
(-0.0009979 2.21e-05 8.9e-05)
(-0.0009986 6.11e-05 5.22e-05)
(-0.0009985 6.45e-05 4.66e-05)
(-0.0009985 5e-05 -6.06e-05)
(-0.0009979 4.88e-05 -6.17e-05)
(-0.0009983 5.82e-05 -5.14e-05)
(-0.0009991 -0.0001111 4.4e-06)
(-0.0009984 -0.0001069 2.76e-05)
(-0.0009987 -8.82e-05 -5.73e-05)
(-0.0009984 3.45e-05 -7.36e-05)
(-0.0009992 5.31e-05 -5.76e-05)
(-0.0009988 -4.54e-05 -8.54e-05)
(-0.0009984 4.5e-06 -8.62e-05)
(-0.0009987 1.3e-06 -8.69e-05)
(-0.0009988 -1.48e-05 -8.86e-05)
(-0.0009991 -2.02e-05 -8.87e-05)
(-0.0009987 -1.3e-06 -8.73e-05)
(-0.0009987 -8.13e-05 -6.47e-05)
(-0.0009991 -7.86e-05 -6.67e-05)
(-0.0009987 -0.0001091 -1.69e-05)
(-0.0009984 -6.84e-05 -7.46e-05)
(-0.0009995 -0.0001095 -1.46e-05)
(-0.0009991 -0.0001064 -2.5e-05)
(-0.0010007 -7.26e-05 -7.06e-05)
(-0.0009966 -2.91e-05 9.6e-05)
(-0.0009988 -1.46e-05 9.64e-05)
(-0.0009969 -0.0001102 -5e-07)
(-0.0009985 -0.0001041 4.12e-05)
(-0.0003741 1.05e-05 0.0001003)
(-0.0003704 1.38e-05 9.95e-05)
(-1.74e-05 9.37e-05 2.92e-05)
(-0.00068 3.57e-05 -8.59e-05)
(-0.00068 2.87e-05 -8.89e-05)
(-0.0006802 5.14e-05 -7.56e-05)
(-0.00068 -0.000102 -3.87e-05)
(-0.0006801 -0.000102 -3.88e-05)
(-0.0006801 -8.26e-05 7.09e-05)
(-0.0006783 7.64e-05 5.08e-05)
(-0.00068 7.68e-05 4.94e-05)
(-0.0004035 6.7e-05 -6.58e-05)
(-0.0004018 6.73e-05 -6.5e-05)
(-7.26e-05 -0.0001081 9.2e-06)
(-7.67e-05 -0.0001081 9.7e-06)
(-0.000764 -8.47e-05 6.74e-05)
(-0.0007637 -8.78e-05 6.48e-05)
(-0.0007032 7.65e-05 4.78e-05)
(-0.0007023 7.71e-05 4.69e-05)
(-0.0006957 5.38e-05 7.68e-05)
(-0.000699 5.22e-05 7.89e-05)
(-0.0003553 6.71e-05 -6.7e-05)
(-0.0003552 6.59e-05 -6.87e-05)
(-0.0006771 3.26e-05 -8.72e-05)
(-0.0006799 -4.48e-05 -9.09e-05)
(-0.00068 -4.62e-05 -9.03e-05)
(-0.0004236 -6.41e-05 8.64e-05)
(-0.0004258 -6.55e-05 8.58e-05)
(-3.41e-05 -0.0001075 2.38e-05)
(-3.17e-05 -0.0001091 2.11e-05)
(-0.0006802 -0.0001003 -4.29e-05)
(-0.00068 -0.0001011 -4.05e-05)
(-0.0003594 -8.42e-05 -6.79e-05)
(-0.0003587 -8.36e-05 -6.87e-05)
(-1.74e-05 3.48e-05 9.47e-05)
(-0.0005214 -9.49e-05 5.58e-05)
(-0.00068 -4.17e-05 -9.24e-05)
(-0.000681 4.88e-05 -7.8e-05)
(-0.0004225 -6.37e-05 8.67e-05)
(-0.0008294 -8.92e-05 6.16e-05)
(-0.0008293 -9.12e-05 5.89e-05)
(-0.0007049 7.62e-05 4.89e-05)
(-0.0004973 -6.83e-05 -8.01e-05)
(-0.0004971 -6.88e-05 -7.97e-05)
(-2.64e-05 -0.0001082 -1.64e-05)
(-2.63e-05 -0.0001095 -1.33e-05)
(-0.0007419 5.69e-05 7.28e-05)
(-0.0007483 5.9e-05 7.06e-05)
(-0.00068 -0.0001073 2.61e-05)
(-0.00068 -0.0001075 2.5e-05)
(-0.0005271 7.75e-05 -4.64e-05)
(-0.0005272 7.83e-05 -4.53e-05)
(-1.74e-05 5.44e-05 -8.43e-05)
(-1.74e-05 5.52e-05 -8.4e-05)
(-0.00072 -9.91e-05 4.96e-05)
(-0.0007204 -0.0001 4.76e-05)
(-0.0006775 -8.52e-05 6.85e-05)
(-0.0006799 -0.0001079 2.35e-05)
(-0.0006809 -2.09e-05 -9.69e-05)
(-0.00068 -1.88e-05 -9.76e-05)
(-0.0006809 2.44e-05 -9.11e-05)
(-0.0004128 6.64e-05 -6.51e-05)
(-0.0007206 -6.78e-05 8.38e-05)
(-0.0007203 -6.67e-05 8.47e-05)
(-0.0001937 -3e-06 0.0001018)
(-0.0001972 -2.8e-06 0.0001017)
(-0.0004097 6.65e-05 -6.46e-05)
(-0.0006173 6.74e-05 6.53e-05)
(-0.0006206 7.06e-05 6.03e-05)
(-0.0007209 -3.77e-05 9.72e-05)
(-0.0007209 -3.76e-05 9.72e-05)
(-0.0007209 -4.2e-05 9.64e-05)
(-0.0007209 -4.19e-05 9.64e-05)
(-0.0007209 -3.93e-05 9.69e-05)
(-1.74e-05 -5.22e-05 -9.47e-05)
(-1.74e-05 -5.08e-05 -9.53e-05)
(-1.74e-05 -5.44e-05 -9.34e-05)
(-0.0008281 -8.61e-05 6.55e-05)
(-0.000828 -8.51e-05 6.67e-05)
(-1.74e-05 7.45e-05 6.84e-05)
(-7.19e-05 8.21e-05 4.8e-05)
(-6.97e-05 8.22e-05 4.86e-05)
(-0.0007242 -5.34e-05 -8.76e-05)
(-0.0007217 -4.61e-05 -9.08e-05)
(-0.0007217 -4.45e-05 -9.12e-05)
(-0.0007229 8.67e-05 -8e-06)
(-0.0007229 8.68e-05 -1.03e-05)
(-0.0007249 7.35e-05 5.25e-05)
(-0.0007204 -0.0001007 4.59e-05)
(-0.0007228 5.26e-05 -7.36e-05)
(-0.0007228 5.42e-05 -7.16e-05)
(-0.000721 -9.05e-05 -5.89e-05)
(-0.000721 -9.04e-05 -5.9e-05)
(-0.0004153 6.78e-05 -6.56e-05)
(-0.0007213 -3.46e-05 9.76e-05)
(-7.29e-05 8.21e-05 4.77e-05)
(-0.0007991 -0.0001082 -1.67e-05)
(-0.0007983 -0.0001085 -1.61e-05)
(-0.0005421 8.91e-05 -1.24e-05)
(-0.000543 8.93e-05 -1.23e-05)
(-0.0003985 7.12e-05 -5.76e-05)
(-0.0006837 -7.19e-05 8.03e-05)
(-0.0006829 -7.39e-05 7.82e-05)
(-0.0003998 6.78e-05 -6.29e-05)
(-0.000722 -9.66e-05 -5.02e-05)
(-0.0001627 6.81e-05 -6.85e-05)
(-0.0001641 6.81e-05 -6.86e-05)
(-0.000399 7.52e-05 -5.47e-05)
(-0.0003988 7.31e-05 -5.58e-05)
(-0.0003986 6.87e-05 -6.14e-05)
(-0.0003988 6.76e-05 -6.28e-05)
(-0.0007213 -6.99e-05 -7.75e-05)
(-0.0007191 -6.81e-05 -7.88e-05)
(-0.0007217 -4.64e-05 -9.07e-05)
(-0.0007216 -4.88e-05 -9.02e-05)
(-0.0003487 -7.74e-05 7.61e-05)
(-0.000351 -7.83e-05 7.52e-05)
(-0.0006774 3.93e-05 -8.44e-05)
(-0.0006799 -1.88e-05 -9.76e-05)
(-0.00068 -2.08e-05 -9.71e-05)
(-0.0007395 5.6e-06 -9.31e-05)
(-0.0007402 6.9e-06 -9.29e-05)
(-1.83e-05 -0.000102 -4.06e-05)
(-1.74e-05 -0.000102 -4.06e-05)
(-1.78e-05 9.06e-05 -3.67e-05)
(-1.76e-05 -5.5e-06 -0.0001057)
(-1.74e-05 -6.1e-06 -0.0001058)
(-0.000721 -2.86e-05 9.96e-05)
(-0.0007211 -2.68e-05 0.0001002)
(-0.0003461 -7.63e-05 7.72e-05)
(-0.0001233 -1.21e-05 -0.0001035)
(-0.0001179 -1.17e-05 -0.0001035)
(-0.0007215 -6.09e-05 -8.43e-05)
(-0.0007213 -6.1e-05 -8.43e-05)
(-0.0003835 6.94e-05 -6.17e-05)
(-0.0003849 7e-05 -6.1e-05)
(-1.74e-05 8.11e-05 5.78e-05)
(-1.74e-05 8.06e-05 5.9e-05)
(-1.78e-05 -1.8e-05 0.0001032)
(-1.74e-05 -1.8e-05 0.0001032)
(-0.0007215 -7.01e-05 -7.74e-05)
(-0.000721 -8.93e-05 -6.01e-05)
(-0.000609 -3.96e-05 -9.35e-05)
(-0.0006082 -3.83e-05 -9.41e-05)
(-0.0005308 8.6e-05 -2.45e-05)
(-0.0005328 8.6e-05 -2.45e-05)
(-0.0005325 8.71e-05 -2.18e-05)
(-2.84e-05 -6.31e-05 -8.58e-05)
(-2.4e-05 -6.27e-05 -8.63e-05)
(-1.74e-05 3.14e-05 9.69e-05)
(-0.0005211 -9.24e-05 5.89e-05)
(-0.0005209 -9.18e-05 6.03e-05)
(-0.0007229 6.39e-05 -6.18e-05)
(-0.0005452 8.99e-05 -1.21e-05)
(-0.0005445 -6.96e-05 -7.91e-05)
(-0.0005418 -6.9e-05 -7.95e-05)
(-0.0007217 -4.15e-05 -9.23e-05)
(-0.0007211 -4.14e-05 -9.25e-05)
(-0.0007204 -0.0001053 3.24e-05)
(-0.0007225 7.24e-05 5.46e-05)
(-0.0007204 6.48e-05 -6.13e-05)
(-2.01e-05 3.12e-05 -9.85e-05)
(-0.0007208 -9.94e-05 -4.54e-05)
(-1.74e-05 5.34e-05 -8.47e-05)
(-1.74e-05 -0.0001065 -3.71e-05)
(-1.74e-05 -4.44e-05 9.76e-05)
(-1.79e-05 -4.57e-05 9.57e-05)
(-1.74e-05 -1.53e-05 0.0001025)
(-1.74e-05 8.87e-05 -4.01e-05)
(-0.0007204 -9.23e-05 5.83e-05)
(-0.0007204 -9.35e-05 5.68e-05)
(-0.0007204 -9.53e-05 5.5e-05)
(-0.0007225 7.63e-05 4.81e-05)
(-0.0001193 -1.34e-05 0.0001004)
(-0.0001155 -3.6e-06 0.0001004)
(-1.74e-05 -6.66e-05 8.24e-05)
(-1.74e-05 -6.94e-05 8.11e-05)
(-1.73e-05 -1.53e-05 0.0001025)
(-1.74e-05 6.7e-05 -7.6e-05)
(-1.74e-05 7.97e-05 6.2e-05)
(-7.4e-06 -1.59e-05 -0.000107)
(-7.5e-06 -1.08e-05 -0.000107)
(-1.73e-05 2.96e-05 -9.87e-05)
(-7.5e-06 -8e-06 -0.0001069)
(-7.4e-06 -1.91e-05 -0.0001068)
(-7.9e-06 5.3e-06 -0.0001063)
(-7.7e-06 7.6e-06 -0.000107)
(-7.1e-06 -3.6e-05 -0.0001031)
(-7.2e-06 -3.37e-05 -0.0001044)
(-7.1e-06 -3.12e-05 -0.0001051)
(-7.8e-06 1.34e-05 -0.0001069)
(-7.9e-06 3e-05 -0.0001013)
(-8e-06 3.55e-05 -0.0001011)
(-8.1e-06 4.03e-05 -9.86e-05)
(-8.1e-06 4.18e-05 -9.71e-05)
(-8.1e-06 -4.6e-05 -9.88e-05)
(-8.2e-06 -4.87e-05 -9.76e-05)
(-8.3e-06 -4.21e-05 -9.97e-05)
(-8.2e-06 -4.41e-05 -9.9e-05)
(-8e-06 3.9e-05 -9.98e-05)
(-8e-06 -5.01e-05 -9.77e-05)
(-8.1e-06 -5.28e-05 -9.66e-05)
(-6.5e-06 0.0001128 4.09e-05)
(-6.5e-06 0.0001083 3.7e-05)
(-6.6e-06 0.0001162 4.36e-05)
(-6.2e-06 5.01e-05 9.27e-05)
(-6.3e-06 5.15e-05 9.19e-05)
(-6.2e-06 5.38e-05 8.99e-05)
(-6.3e-06 5.59e-05 8.8e-05)
(-6.2e-06 4.72e-05 9.37e-05)
(-5.8e-06 4.48e-05 9.53e-05)
(-5.9e-06 4.22e-05 9.56e-05)
(-5.7e-06 2.39e-05 0.0001026)
(-5.9e-06 2.51e-05 0.0001017)
(-6.3e-06 5.79e-05 8.71e-05)
(-7.3e-06 0.0001 1.77e-05)
(-6.9e-06 0.0001008 1.78e-05)
(-8.2e-06 9.89e-05 1.81e-05)
(-7.5e-06 0.0001093 5.75e-05)
(-7.5e-06 0.0001155 4.84e-05)
(-7.7e-06 0.0001191 4.92e-05)
(-7.6e-06 0.0001108 5.09e-05)
(-7.5e-06 0.0001076 6.05e-05)
(-7.3e-06 9.84e-05 7.19e-05)
(-7.5e-06 0.0001065 7.07e-05)
(-8.4e-06 7.45e-05 -6.65e-05)
(-7.3e-06 -0.0001042 -4.06e-05)
(-7.1e-06 -0.0001059 -3.94e-05)
(-7e-06 -7.53e-05 7.99e-05)
(-6.7e-06 -7.13e-05 8.38e-05)
(-7.1e-06 -6.38e-05 9e-05)
(-7.1e-06 -6.06e-05 9.04e-05)
(-7.2e-06 -5.82e-05 9.14e-05)
(-7e-06 -6.58e-05 8.94e-05)
(-7.4e-06 -2.36e-05 0.0001032)
(-7.3e-06 -2.16e-05 0.0001038)
(-6.7e-06 3.3e-06 0.0001043)
(-6.8e-06 8e-07 0.0001053)
(-7.9e-06 -0.000108 -3.76e-05)
(-7.7e-06 -0.0001067 -3.85e-05)
(-8.3e-06 -0.0001018 -4.63e-05)
(-8.4e-06 -0.000101 -4.9e-05)
(-8e-06 -0.0001085 -3.06e-05)
(-8.3e-06 -0.0001025 -4.34e-05)
(-8.2e-06 -0.0001083 -3.61e-05)
(-9.2e-06 -0.0001078 -3.26e-05)
(-7.7e-06 1.49e-05 -0.0001066)
(-9.1e-06 -5.16e-05 -9.62e-05)
(-7.2e-06 7e-05 -7.57e-05)
(-7.2e-06 6.95e-05 -7.8e-05)
(-7.4e-06 7.07e-05 -7.33e-05)
(-8.8e-06 -7.45e-05 -8.2e-05)
(-8.8e-06 -7.62e-05 -8.1e-05)
(-8.9e-06 -7.26e-05 -8.33e-05)
(-8.7e-06 -7.85e-05 -7.98e-05)
(-7.9e-06 -0.0001009 -7.36e-05)
(-8e-06 -9.74e-05 -8.6e-05)
(-7.9e-06 -9.81e-05 -7.79e-05)
(-8.8e-06 -8.07e-05 -7.76e-05)
(-8.6e-06 -8.25e-05 -7.59e-05)
(-8.7e-06 -8.45e-05 -7.38e-05)
(-8.6e-06 -8.65e-05 -7.18e-05)
(-8.7e-06 -8.73e-05 -6.99e-05)
(-8.6e-06 -8.88e-05 -6.82e-05)
(-9.1e-06 -0.0001102 3.03e-05)
(-9.1e-06 -0.0001102 2.72e-05)
(-1e-05 -0.0001097 3.35e-05)
(-9.1e-06 -0.0001117 2.41e-05)
(-9.1e-06 -0.0001124 2.22e-05)
(-9e-06 -0.0001055 4.04e-05)
(-9.8e-06 -8.6e-05 -7.12e-05)
(-9.8e-06 -8.4e-05 -7.34e-05)
(-9.4e-06 -0.0001077 -2.81e-05)
(-9e-06 -0.0001135 -3.8e-06)
(-9.4e-06 -0.0001137 -6.7e-06)
(-9.1e-06 -0.0001135 9.4e-06)
(-9e-06 -0.0001134 7.7e-06)
(-9e-06 -9.41e-05 6.01e-05)
(-9.1e-06 -9.61e-05 5.76e-05)
(-9.1e-06 -0.0001124 1.85e-05)
(-9.1e-06 -0.0001124 1.59e-05)
(-8.1e-06 -0.0001122 2.5e-06)
(-8e-06 -0.0001135 5.5e-06)
(-8e-06 -0.0001043 4.18e-05)
(-8e-06 -0.0001 4.86e-05)
(-8.2e-06 -9.91e-05 5.17e-05)
(-8.1e-06 -0.0001027 4.43e-05)
(-8.2e-06 -0.0001011 4.65e-05)
(-8.5e-06 -0.0001079 3.91e-05)
(-8.4e-06 -9.8e-05 5.47e-05)
(-9.5e-06 -9.95e-05 -5.76e-05)
(-9.6e-06 -9.84e-05 -5.95e-05)
(-9.7e-06 -9.66e-05 -6.11e-05)
(-9.5e-06 -9.98e-05 -5e-05)
(-9.3e-06 -9.97e-05 -5.39e-05)
(-9.3e-06 -0.0001076 -3.48e-05)
(-8.1e-06 -8.42e-05 7.25e-05)
(-8.1e-06 -8.24e-05 7.37e-05)
(-8.5e-06 -0.0001008 -5.37e-05)
(-7.1e-06 6.7e-05 -8.19e-05)
(-7e-06 6.54e-05 -8.36e-05)
(-6.4e-06 5.61e-05 -9.37e-05)
(-6.6e-06 5.37e-05 -9.21e-05)
(-7.2e-06 8.22e-05 -6.03e-05)
(-7.3e-06 8.05e-05 -6.28e-05)
(-6.8e-06 0.0001162 -9.5e-06)
(-6.9e-06 0.0001188 -9.3e-06)
(-4.7e-06 -1.46e-05 0.0001262)
(-4.9e-06 -1.42e-05 0.0001289)
(-5.7e-06 -1.2e-06 0.0001262)
(-5.5e-06 -2.2e-06 0.0001279)
(-5.1e-06 -3.7e-06 0.00013)
(-7.3e-06 3.06e-05 -0.0001143)
(-7.3e-06 3e-05 -0.0001175)
(-7.1e-06 1.36e-05 -0.0001113)
(-7.1e-06 1.91e-05 -0.0001107)
(-7.2e-06 2.46e-05 -0.000108)
(-7.3e-06 3.19e-05 -0.0001121)
(-7.3e-06 1.61e-05 -0.0001069)
(-7.2e-06 -3.86e-05 -0.0001014)
(-7.1e-06 7.19e-05 -7.17e-05)
(-1.59e-05 6.49e-05 8.02e-05)
(-9.1e-06 -0.0001094 3.67e-05)
(-8e-06 -0.000124 6.05e-05)
(-1.7e-05 -0.0001082 -3.29e-05)
(-1.73e-05 -9.06e-05 -6.36e-05)
(-1.74e-05 -9.3e-05 -6.13e-05)
(-1.62e-05 9.04e-05 -3.66e-05)
(-1.69e-05 -7.3e-06 -0.000106)
(-1.49e-05 7.17e-05 6.98e-05)
(-1.72e-05 3.65e-05 9.4e-05)
(-1.65e-05 6.69e-05 -7.72e-05)
(-1.72e-05 -7.22e-05 7.96e-05)
(-1.6e-05 9.38e-05 3.09e-05)
(-1.74e-05 9.39e-05 2.68e-05)
(-1.04e-05 0.0001612 5.2e-06)
(-7.2e-06 0.0001163 -5.35e-05)
(-1.04e-05 0.0001499 -6.33e-05)
(-1.04e-05 0.0001499 5.62e-05)
(-1.04e-05 -6.78e-05 0.0001429)
(-6.5e-06 -5.54e-05 0.000129)
(-1.04e-05 -0.0001426 7.21e-05)
(-1.04e-05 -0.0001555 3.96e-05)
(-8.2e-06 -0.0001331 3.58e-05)
(-1.04e-05 -0.000123 -0.000108)
(-8.9e-06 -0.0001034 -8.1e-05)
(-0.0003727 1.15e-05 0.0001002)
(-0.0009392 -0.0001077 -2.56e-05)
(-0.0009401 -0.0001065 -2.75e-05)
(-0.00068 -3.13e-05 -9.47e-05)
(-0.00068 -3.16e-05 -9.46e-05)
(-0.00068 5e-05 -7.69e-05)
(-0.00068 8.38e-05 3.22e-05)
(-0.0006797 8.34e-05 3.38e-05)
(-0.0007641 -8.65e-05 6.62e-05)
(-0.00068 -0.0001011 -4.06e-05)
(-0.00068 -4.5e-05 -9.09e-05)
(-0.0008901 -0.0001092 -1.84e-05)
(-0.0008888 -0.0001076 -2.24e-05)
(-3.55e-05 -0.000107 2.49e-05)
(-0.0007445 5.78e-05 7.19e-05)
(-2.68e-05 -6.32e-05 -8.6e-05)
(-0.0007204 -0.0001052 3.29e-05)
(-0.0007204 -0.0001 4.77e-05)
(-0.0006783 -0.0001107 1.6e-06)
(-0.00068 -0.0001107 3e-06)
(-0.0006802 8.41e-05 3.09e-05)
(-0.000619 6.93e-05 6.26e-05)
(-0.00068 -4.48e-05 -9.1e-05)
(-7.48e-05 -0.0001081 9.5e-06)
(-0.0008439 5.88e-05 -6.1e-05)
(-0.0008421 5.97e-05 -6.07e-05)
(-0.0001182 -1.06e-05 0.0001005)
(-0.0007218 -4.63e-05 -9.08e-05)
(-0.0007225 7.43e-05 5.14e-05)
(-0.0007229 8.02e-05 -3.49e-05)
(-0.0007231 8.06e-05 -3.4e-05)
(-0.0007229 5.25e-05 -7.38e-05)
(-1.74e-05 -6.95e-05 8.11e-05)
(-0.0004078 8.78e-05 3.47e-05)
(-0.0004083 8.68e-05 3.7e-05)
(-0.0008173 1.1e-05 -9.22e-05)
(-0.0008176 9.1e-06 -9.24e-05)
(-0.0007999 -0.0001084 -1.68e-05)
(-0.000875 -7.37e-05 -7.27e-05)
(-0.0008748 -7.66e-05 -7e-05)
(-1.74e-05 -5.7e-06 -0.0001058)
(-0.0006799 1.8e-05 9.79e-05)
(-0.00068 1.81e-05 9.79e-05)
(-0.0009548 7.61e-05 3.4e-06)
(-0.0009575 7.64e-05 4.2e-06)
(-1.74e-05 -4.46e-05 9.74e-05)
(-1.74e-05 -9.1e-05 -6.33e-05)
(-1.75e-05 7.97e-05 6.2e-05)
(-0.0007229 8.67e-05 -7.8e-06)
(-0.0007204 -0.0001054 3.23e-05)
(-0.0007214 -6.53e-05 -8.18e-05)
(-0.0007212 -6.57e-05 -8.15e-05)
(-0.0007217 -2.93e-05 -9.51e-05)
(-0.0007219 -2.86e-05 -9.53e-05)
(-0.0007215 -6.1e-05 -8.43e-05)
(-0.0007216 -5.37e-05 -8.81e-05)
(-0.0007208 -9.77e-05 -4.83e-05)
(-0.0007213 -7e-05 -7.75e-05)
(-1.74e-05 -6.53e-05 8.37e-05)
(-1.74e-05 -6.64e-05 8.25e-05)
(-0.0007212 -2.67e-05 0.0001003)
(-0.0007203 -9.35e-05 5.69e-05)
(-0.0008581 -1.14e-05 9.89e-05)
(-0.0008621 -5.6e-06 9.79e-05)
(-1.74e-05 2.47e-05 0.0001008)
(-1.73e-05 2.11e-05 0.0001012)
(-1.74e-05 -5.23e-05 -9.47e-05)
(-7.2e-06 -5.74e-05 0.0001312)
(-9.3e-06 3.92e-05 -0.0001298)
(-9.6e-06 4.09e-05 -0.000132)
(-8.9e-06 1.45e-05 -0.000106)
(-8e-06 -9.77e-05 -8.34e-05)
(-9.5e-06 -0.0001049 -8.29e-05)
(-7.8e-06 0.0001189 -5.42e-05)
(-8.9e-06 -0.0001369 3.63e-05)
(-1.73e-05 -0.0001066 -3.71e-05)
(-1.73e-05 1.3e-05 -0.0001046)
(-1.74e-05 1.24e-05 -0.0001047)
(-1.74e-05 -9.6e-06 0.0001037)
(-1.72e-05 -8.9e-06 0.000104)
(-1.73e-05 -8.83e-05 -6.69e-05)
(-1.74e-05 -8.87e-05 -6.62e-05)
(-1.73e-05 7.01e-05 7.19e-05)
(-1.74e-05 7.02e-05 7.17e-05)
(-1.04e-05 5.15e-05 -0.0001565)
(-6.4e-06 -8.94e-05 9.66e-05)
(-1.04e-05 -0.000111 0.0001136)
)


// edges:

726
(
(359 360)
(361 186)
(362 187)
(188 363)
(364 0)
(365 366)
(1 367)
(188 2)
(2 189)
(368 3)
(3 369)
(370 371)
(372 373)
(192 191)
(374 375)
(376 377)
(378 379)
(380 381)
(2 382)
(383 384)
(385 386)
(387 388)
(389 390)
(391 392)
(186 4)
(4 194)
(393 196)
(6 199)
(198 6)
(5 394)
(395 383)
(396 0)
(385 397)
(398 399)
(400 376)
(401 402)
(403 404)
(405 406)
(407 408)
(409 410)
(200 189)
(1 190)
(411 412)
(201 362)
(413 414)
(415 1)
(416 408)
(417 418)
(419 363)
(9 420)
(8 9)
(421 422)
(423 424)
(425 9)
(426 427)
(3 203)
(195 3)
(0 202)
(428 429)
(430 431)
(431 432)
(433 434)
(435 433)
(436 437)
(11 197)
(206 438)
(439 440)
(12 441)
(442 443)
(444 207)
(445 444)
(446 208)
(414 447)
(448 449)
(450 451)
(452 8)
(453 429)
(439 454)
(455 456)
(457 458)
(7 459)
(460 461)
(462 371)
(210 463)
(464 465)
(466 467)
(467 7)
(468 469)
(470 471)
(472 473)
(474 475)
(476 200)
(477 478)
(479 480)
(481 482)
(483 13)
(484 485)
(486 487)
(488 474)
(489 490)
(491 492)
(493 494)
(495 496)
(497 14)
(14 498)
(499 470)
(451 500)
(501 502)
(503 15)
(15 504)
(505 15)
(506 507)
(11 508)
(5 509)
(510 509)
(511 209)
(512 458)
(472 442)
(513 514)
(515 516)
(193 517)
(208 518)
(519 209)
(12 211)
(10 520)
(213 521)
(522 411)
(191 523)
(524 525)
(526 14)
(210 213)
(527 13)
(528 529)
(529 530)
(531 208)
(532 533)
(534 535)
(14 536)
(16 204)
(537 16)
(215 538)
(539 540)
(10 541)
(540 542)
(543 539)
(544 545)
(546 547)
(547 548)
(545 549)
(550 551)
(552 553)
(554 555)
(556 557)
(557 554)
(558 552)
(559 560)
(561 562)
(563 561)
(564 565)
(566 567)
(565 566)
(568 564)
(569 570)
(571 572)
(567 573)
(574 575)
(576 574)
(17 577)
(578 579)
(17 580)
(581 577)
(18 582)
(18 583)
(19 584)
(585 586)
(587 588)
(589 590)
(590 591)
(592 589)
(593 594)
(595 596)
(597 598)
(599 600)
(601 217)
(599 602)
(603 216)
(604 20)
(549 605)
(555 606)
(607 608)
(609 607)
(610 611)
(612 610)
(611 613)
(614 615)
(614 616)
(617 618)
(613 617)
(618 619)
(619 620)
(620 621)
(621 622)
(623 624)
(623 625)
(626 627)
(624 626)
(21 628)
(629 630)
(631 20)
(632 633)
(634 635)
(636 637)
(627 638)
(638 639)
(640 641)
(21 642)
(22 21)
(643 644)
(645 646)
(646 643)
(647 22)
(642 645)
(644 648)
(649 650)
(650 651)
(652 653)
(653 23)
(23 219)
(217 654)
(218 604)
(655 656)
(657 23)
(220 23)
(220 649)
(658 659)
(24 660)
(24 661)
(662 663)
(664 665)
(666 667)
(668 669)
(669 670)
(671 672)
(673 674)
(674 675)
(676 671)
(677 605)
(678 546)
(679 19)
(6 680)
(681 647)
(648 25)
(637 25)
(26 682)
(26 221)
(192 683)
(684 685)
(686 13)
(485 687)
(688 438)
(393 689)
(16 690)
(535 691)
(205 222)
(222 692)
(222 693)
(222 361)
(4 222)
(694 665)
(695 696)
(697 579)
(214 667)
(214 670)
(698 699)
(700 26)
(701 702)
(703 704)
(672 676)
(360 705)
(706 707)
(186 27)
(708 709)
(187 382)
(710 364)
(189 188)
(711 712)
(191 28)
(28 192)
(375 713)
(713 374)
(189 187)
(714 390)
(715 384)
(716 717)
(388 718)
(406 719)
(389 714)
(194 186)
(196 197)
(199 198)
(386 397)
(507 720)
(400 377)
(440 454)
(189 201)
(190 367)
(193 721)
(722 413)
(419 188)
(415 190)
(407 416)
(723 724)
(725 711)
(427 726)
(726 426)
(203 195)
(202 710)
(29 200)
(201 29)
(478 30)
(30 417)
(430 432)
(727 395)
(728 372)
(728 373)
(729 730)
(731 532)
(31 206)
(443 732)
(207 445)
(208 733)
(447 722)
(734 735)
(449 736)
(405 719)
(534 737)
(428 453)
(32 446)
(738 739)
(740 741)
(33 463)
(210 33)
(742 456)
(743 744)
(29 476)
(477 30)
(194 205)
(745 484)
(202 396)
(693 27)
(203 368)
(475 488)
(746 747)
(418 30)
(727 715)
(748 749)
(525 750)
(685 751)
(732 473)
(752 34)
(34 538)
(720 506)
(35 209)
(511 35)
(457 512)
(733 518)
(753 207)
(193 754)
(755 756)
(35 519)
(757 758)
(759 492)
(369 195)
(531 32)
(33 213)
(211 760)
(521 761)
(762 471)
(450 500)
(763 764)
(213 761)
(524 750)
(527 483)
(537 204)
(499 762)
(32 208)
(765 486)
(766 530)
(731 533)
(767 768)
(498 536)
(215 34)
(769 770)
(771 434)
(576 575)
(580 581)
(583 582)
(699 772)
(773 774)
(775 677)
(776 615)
(616 776)
(495 215)
(218 217)
(704 777)
(220 219)
(216 654)
(660 661)
(675 673)
(778 695)
(779 702)
(221 682)
(683 36)
(36 192)
(36 780)
(191 36)
(684 751)
(781 782)
(688 31)
(783 784)
(689 196)
(204 690)
(785 786)
(691 737)
(435 771)
(198 680)
(787 788)
(27 222)
(194 222)
(774 789)
(664 694)
(696 778)
(578 697)
(666 214)
(772 698)
(668 214)
(701 779)
(790 791)
(700 221)
(703 777)
(223 224)
(225 226)
(227 228)
(229 230)
(226 231)
(232 233)
(231 234)
(235 232)
(236 237)
(238 236)
(239 240)
(241 242)
(228 243)
(243 235)
(244 245)
(246 247)
(248 249)
(234 241)
(250 248)
(245 250)
(251 238)
(249 229)