/*--------------------------------*- C++ -*----------------------------------*\
  =========                 |
  \\      /  F ield         | OpenFOAM: The Open Source CFD Toolbox
   \\    /   O peration     | Website:  https://openfoam.org
    \\  /    A nd           | Version:  7
     \\/     M anipulation  |
\*---------------------------------------------------------------------------*/
FoamFile
{
    version     2.0;
    format      ascii;
    class       featureEdgeMesh;
    location    "constant/triSurface";
    object      wallcylinder.eMesh;
}
// * * * * * * * * * * * * * * * * * * * * * * * * * * * * * * * * * * * * * //


// points:

352
(
(-0.00415 0.012016 0.0235984)
(-0.00415 0.0112689 0.0239644)
(-0.00415 0.014183 0.0223623)
(-0.00415 0.0134737 0.022797)
(-0.00415 0.0148783 0.0219056)
(-0.00415 0.0155589 0.0214272)
(-0.00415 0.0162242 0.0209278)
(-0.00415 0.0127511 0.0232091)
(-0.00415 0.0168734 0.0204076)
(-0.00415 0.017506 0.0198674)
(-0.00415 0.0181213 0.0193075)
(-0.00415 0.0187187 0.0187285)
(-0.00415 0.0105107 0.0243067)
(-0.00415 0.0227871 0.0134836)
(-0.00415 0.0223524 0.0141929)
(-0.00415 0.0203977 0.0168833)
(-0.00415 0.0198575 0.0175159)
(-0.00415 0.0264617 0.0008355)
(-0.00415 0.0264225 0.0016665)
(-0.00415 0.0264617 -0.000828)
(-0.00415 0.0264747 3.8e-06)
(-0.00415 0.0262659 -0.0033152)
(-0.00415 0.0263572 -0.0024883)
(-0.00415 0.0264225 -0.001659)
(-0.00415 0.0209179 0.0162341)
(-0.00415 0.0214173 0.0155688)
(-0.00415 0.025837 0.0057804)
(-0.00415 0.0256428 0.0065893)
(-0.00415 0.0192976 0.0181312)
(-0.00415 0.0235885 0.0120258)
(-0.00415 0.0231992 0.012761)
(-0.00415 0.0260057 -0.0049583)
(-0.00415 0.0261487 -0.0041388)
(-0.00415 0.0256428 -0.0065818)
(-0.00415 0.025837 -0.0057729)
(-0.00415 0.0263572 0.0024958)
(-0.00415 0.0260057 0.0049658)
(-0.00415 0.0254233 0.0073917)
(-0.00415 0.0242968 0.0105206)
(-0.00415 0.0239545 0.0112788)
(-0.00415 0.0251787 0.0081868)
(-0.00415 0.0218957 0.0148882)
(-0.00415 0.0249092 0.0089738)
(-0.00415 0.0246152 0.009752)
(-0.00415 0.0261487 0.0041463)
(-0.00415 0.0262659 0.0033227)
(-0.00415 0.0134737 -0.0227894)
(-0.00415 0.014183 -0.0223548)
(-0.00415 0.0242968 -0.010513)
(-0.00415 0.0246152 -0.0097445)
(-0.00415 0.0227871 -0.0134761)
(-0.00415 0.0231992 -0.0127535)
(-0.00415 0.0162242 -0.0209202)
(-0.00415 0.0168734 -0.0204001)
(-0.00415 0.0235885 -0.0120183)
(-0.00415 0.0112689 -0.0239568)
(-0.00415 0.012016 -0.0235909)
(-0.00415 0.0097421 -0.0246175)
(-0.00415 0.0105107 -0.0242992)
(-0.00415 0.0148783 -0.021898)
(-0.00415 0.0155589 -0.0214197)
(-0.00415 0.017506 -0.0198598)
(-0.00415 0.0127511 -0.0232016)
(-0.00415 0.008964 -0.0249116)
(-0.00415 0.0181213 -0.0192999)
(-0.00415 0.0187187 -0.018721)
(-0.00415 0.0081769 -0.025181)
(-0.00415 0.0209179 -0.0162266)
(-0.00415 0.0214173 -0.0155613)
(-0.00415 0.0239545 -0.0112712)
(-0.00415 0.0073818 -0.0254256)
(-0.00415 0.0249092 -0.0089663)
(-0.00415 0.0251787 -0.0081793)
(-0.00415 0.0192976 -0.0181236)
(-0.00415 0.0198575 -0.0175083)
(-0.00415 0.0254233 -0.0073842)
(-0.00415 0.0203977 -0.0168758)
(-0.00415 0.0223524 -0.0141854)
(-0.00415 0.0218957 -0.0148807)
(-0.00415 -0.0089762 -0.0249116)
(-0.00415 -0.0081892 -0.025181)
(-0.00415 -0.0008379 -0.026464)
(-0.00415 -6.1e-06 -0.0264771)
(-0.00415 -0.0024982 -0.0263596)
(-0.00415 -0.0016689 -0.0264248)
(-0.00415 -0.0120282 -0.0235909)
(-0.00415 -0.0112811 -0.0239568)
(-0.00415 -0.0127634 -0.0232016)
(-0.00415 -0.013486 -0.0227894)
(-0.00415 -0.0097544 -0.0246175)
(-0.00415 -0.0041486 -0.0261511)
(-0.00415 -0.003325 -0.0262683)
(-0.00415 0.0008257 -0.026464)
(-0.00415 0.0041364 -0.0261511)
(-0.00415 0.0049559 -0.0260081)
(-0.00415 -0.0105229 -0.0242992)
(-0.00415 0.0065794 -0.0256452)
(-0.00415 -0.0148906 -0.021898)
(-0.00415 -0.0141953 -0.0223548)
(-0.00415 -0.0155712 -0.0214197)
(-0.00415 -0.0168856 -0.0204001)
(-0.00415 -0.0162364 -0.0209202)
(-0.00415 0.0016566 -0.0264248)
(-0.00415 0.002486 -0.0263596)
(-0.00415 -0.0057827 -0.0258393)
(-0.00415 -0.0049681 -0.0260081)
(-0.00415 -0.0175182 -0.0198598)
(-0.00415 0.0057705 -0.0258393)
(-0.00415 -0.0181335 -0.0192999)
(-0.00415 0.0033128 -0.0262683)
(-0.00415 -0.0065916 -0.0256452)
(-0.00415 -0.007394 -0.0254256)
(-0.00415 -0.0227993 -0.0134761)
(-0.00415 -0.0223646 -0.0141854)
(-0.00415 -0.0251909 -0.0081793)
(-0.00415 -0.0249214 -0.0089663)
(-0.00415 -0.0198697 -0.0175083)
(-0.00415 -0.0193098 -0.0181236)
(-0.00415 -0.0263694 -0.0024883)
(-0.00415 -0.0262782 -0.0033152)
(-0.00415 -0.0264739 -0.000828)
(-0.00415 -0.0264347 -0.001659)
(-0.00415 -0.0219079 -0.0148807)
(-0.00415 -0.0236007 -0.0120183)
(-0.00415 -0.0232115 -0.0127535)
(-0.00415 -0.0246274 -0.0097445)
(-0.00415 -0.0261609 -0.0041388)
(-0.00415 -0.0187309 -0.018721)
(-0.00415 -0.0264868 3.8e-06)
(-0.00415 -0.0214296 -0.0155613)
(-0.00415 -0.0209301 -0.0162266)
(-0.00415 -0.0264739 0.0008355)
(-0.00415 -0.0260179 -0.0049583)
(-0.00415 -0.0258492 -0.0057729)
(-0.00415 -0.0264347 0.0016665)
(-0.00415 -0.0243091 -0.010513)
(-0.00415 -0.0239667 -0.0112712)
(-0.00415 -0.02041 -0.0168758)
(-0.00415 -0.0254355 -0.0073842)
(-0.00415 -0.025655 -0.0065818)
(-0.00415 -0.0236007 0.0120258)
(-0.00415 -0.0239667 0.0112788)
(-0.00415 -0.0263694 0.0024958)
(-0.00415 -0.0254355 0.0073917)
(-0.00415 -0.025655 0.0065893)
(-0.00415 -0.0260179 0.0049658)
(-0.00415 -0.0261609 0.0041463)
(-0.00415 -0.0262782 0.0033227)
(-0.00415 -0.0246274 0.009752)
(-0.00415 -0.0249214 0.0089738)
(-0.00415 -0.0181335 0.0193075)
(-0.00415 -0.0187309 0.0187285)
(-0.00415 -0.0148906 0.0219056)
(-0.00415 -0.0155712 0.0214272)
(-0.00415 -0.0214296 0.0155688)
(-0.00415 -0.0219079 0.0148882)
(-0.00415 -0.0193098 0.0181312)
(-0.00415 -0.0198697 0.0175159)
(-0.00415 -0.0175182 0.0198674)
(-0.00415 -0.0258492 0.0057804)
(-0.00415 -0.02041 0.0168833)
(-0.00415 -0.0223646 0.0141929)
(-0.00415 -0.0227993 0.0134836)
(-0.00415 -0.0251909 0.0081868)
(-0.00415 -0.0162364 0.0209278)
(-0.00415 -0.0168856 0.0204076)
(-0.00415 -0.0141953 0.0223623)
(-0.00415 -0.013486 0.022797)
(-0.00415 -0.0127634 0.0232091)
(-0.00415 -0.0120282 0.0235984)
(-0.00415 -0.0209301 0.0162341)
(-0.00415 -0.0243091 0.0105206)
(-0.00415 -0.0232115 0.012761)
(-0.00415 -6.1e-06 0.0264846)
(-0.00415 -0.0008379 0.0264716)
(-0.00415 0.0041364 0.0261586)
(-0.00415 0.0033128 0.0262758)
(-0.00415 -0.0105229 0.0243067)
(-0.00415 -0.0112811 0.0239644)
(-0.00415 0.0057705 0.0258469)
(-0.00415 0.0049559 0.0260156)
(-0.00415 -0.0065916 0.0256527)
(-0.00415 -0.007394 0.0254332)
(-0.00415 0.0097421 0.024625)
(-0.00415 0.008964 0.0249191)
(-0.00415 -0.0057827 0.0258469)
(-0.00415 -0.0016689 0.0264324)
(-0.00415 -0.0024982 0.0263671)
(-0.00415 0.0081769 0.0251886)
(-0.00415 0.0073818 0.0254332)
(-0.00415 0.002486 0.0263671)
(-0.00415 0.0016566 0.0264324)
(-0.00415 -0.0081892 0.0251886)
(-0.00415 -0.0089762 0.0249191)
(-0.00415 0.0008257 0.0264716)
(-0.00415 -0.0049681 0.0260156)
(-0.00415 -0.0041486 0.0261586)
(-0.00415 -0.003325 0.0262758)
(-0.00415 -0.0097544 0.024625)
(-0.00415 0.0065794 0.0256527)
(-0.0001103 -0.0001591 0.0004723)
(-0.0001103 -0.0001071 0.0004867)
(-0.0001103 -0.0004403 0.0002334)
(-0.0001103 -0.0004125 0.0002797)
(-0.0001103 -5.39e-05 0.0004954)
(-0.0001103 0 0.0004983)
(-0.0001103 -0.0004918 -8.06e-05)
(-0.0001103 -0.0004976 -2.7e-05)
(-0.0001103 -0.0004976 2.7e-05)
(-0.0001103 -0.0002092 0.0004523)
(-0.0001103 -0.0003798 0.0003226)
(-0.0001103 -0.0003427 0.0003618)
(-0.0001103 -0.0004918 8.06e-05)
(-0.0001103 -0.0004629 0.0001845)
(-0.0001103 -0.0004629 -0.0001845)
(-0.0001103 -0.0004802 -0.0001333)
(-0.0001103 -0.0003016 0.0003967)
(-0.0001103 -0.0002569 0.000427)
(-0.0001103 5.39e-05 0.0004954)
(-0.0001103 -0.0004802 0.0001333)
(-0.0001103 0 -0.0004983)
(-0.0001103 -5.39e-05 -0.0004954)
(-0.0001103 5.39e-05 -0.0004954)
(-0.0001103 -0.0001591 -0.0004723)
(-0.0001103 -0.0002092 -0.0004523)
(-0.0001103 -0.0003798 -0.0003226)
(-0.0001103 -0.0004125 -0.0002797)
(-0.0001103 -0.0004403 -0.0002334)
(-0.0001103 -0.0001071 -0.0004867)
(-0.0001103 -0.0002569 -0.000427)
(-0.0001103 -0.0003016 -0.0003967)
(-0.0001103 -0.0003427 -0.0003618)
(-0.0001103 0.0001071 0.0004867)
(-0.0001103 0.0001591 0.0004723)
(-0.0001103 0.0002092 0.0004523)
(-0.0001103 0.0002569 0.000427)
(-0.0001103 0.0003016 0.0003967)
(-0.0001103 0.0003427 0.0003618)
(-0.0001103 0.0004976 -2.7e-05)
(-0.0001103 0.0004918 -8.06e-05)
(-0.0001103 0.0003016 -0.0003967)
(-0.0001103 0.0002569 -0.000427)
(-0.0001103 0.0004125 0.0002797)
(-0.0001103 0.0004403 0.0002334)
(-0.0001103 0.0003427 -0.0003618)
(-0.0001103 0.0004125 -0.0002797)
(-0.0001103 0.0003798 -0.0003226)
(-0.0001103 0.0001591 -0.0004723)
(-0.0001103 0.0001071 -0.0004867)
(-0.0001103 0.0004629 0.0001845)
(-0.0001103 0.0004802 0.0001333)
(-0.0001103 0.0003798 0.0003226)
(-0.0001103 0.0004802 -0.0001333)
(-0.0001103 0.0004403 -0.0002334)
(-0.0001103 0.0004976 2.7e-05)
(-0.0001103 0.0002092 -0.0004523)
(-0.0001103 0.0004918 8.06e-05)
(-0.0001103 0.0004629 -0.0001845)
(-0.0041427 0.0015821 0.0031309)
(-0.0041427 0.0017878 0.0030182)
(-0.0041427 0.0019852 0.0028921)
(-0.0041427 0.0021741 0.002753)
(-0.0041427 0.002353 0.0026017)
(-0.0041427 0.0025217 0.0024386)
(-0.0041427 0.0013695 0.0032296)
(-0.0041427 0.0028242 0.0020807)
(-0.0041427 0.0029568 0.0018876)
(-0.0041427 0.003506 0.0001174)
(-0.0041427 0.003506 -0.0001174)
(-0.0041427 0.0032736 0.0012607)
(-0.0041427 0.0033504 0.0010394)
(-0.0041427 0.0034903 0.000351)
(-0.0041427 0.0034903 -0.000351)
(-0.0041427 0.003182 0.0014767)
(-0.0041427 0.0030764 0.0016857)
(-0.0041427 0.0034124 0.0008131)
(-0.0041427 0.0026788 0.0022649)
(-0.0041427 0.0034591 0.0005836)
(-0.0041427 0.0034591 -0.0005836)
(-0.0041427 0.0034124 -0.0008131)
(-0.0041427 0.0029568 -0.0018876)
(-0.0041427 0.0028242 -0.0020807)
(-0.0041427 0.0032736 -0.0012607)
(-0.0041427 0.003182 -0.0014767)
(-0.0041427 0.0021741 -0.002753)
(-0.0041427 0.0019852 -0.0028921)
(-0.0041427 0.0017878 -0.0030182)
(-0.0041427 0.0015821 -0.0031309)
(-0.0041427 0.0013695 -0.0032296)
(-0.0041427 0.0011507 -0.0033138)
(-0.0041427 0.002353 -0.0026017)
(-0.0041427 0.0030764 -0.0016857)
(-0.0041427 0.0033504 -0.0010394)
(-0.0041427 0.0009268 -0.0033833)
(-0.0041427 0.0026788 -0.0022649)
(-0.0041427 0.0025217 -0.0024386)
(-0.0041427 -0.0004676 -0.0034767)
(-0.0041427 -0.0006987 -0.0034376)
(-0.0041427 0.0006987 -0.0034376)
(-0.0041427 0.0004676 -0.0034767)
(-0.0041427 -0.0009268 -0.0033833)
(-0.0041427 -0.0011507 -0.0033138)
(-0.0041427 -0.0017878 -0.0030182)
(-0.0041427 -0.0019852 -0.0028921)
(-0.0041427 -0.0021741 -0.002753)
(-0.0041427 0.0002349 -0.0035001)
(-0.0041427 -0.002353 -0.0026017)
(-0.0041427 -0.0013695 -0.0032296)
(-0.0041427 -0.0015821 -0.0031309)
(-0.0041427 0 -0.003508)
(-0.0041427 -0.0002349 -0.0035001)
(-0.0041427 -0.0034591 -0.0005836)
(-0.0041427 -0.0034903 -0.000351)
(-0.0041427 -0.0033504 -0.0010394)
(-0.0041427 -0.0034124 -0.0008131)
(-0.0041427 -0.003182 -0.0014767)
(-0.0041427 -0.0032736 -0.0012607)
(-0.0041427 -0.003506 -0.0001174)
(-0.0041427 -0.003506 0.0001174)
(-0.0041427 -0.0025217 -0.0024386)
(-0.0041427 -0.0026788 -0.0022649)
(-0.0041427 -0.0028242 -0.0020807)
(-0.0041427 -0.0029568 -0.0018876)
(-0.0041427 -0.0030764 -0.0016857)
(-0.0041427 -0.0034903 0.000351)
(-0.0041427 -0.0034591 0.0005836)
(-0.0041427 -0.0019852 0.0028921)
(-0.0041427 -0.0017878 0.0030182)
(-0.0041427 -0.0034124 0.0008131)
(-0.0041427 -0.0033504 0.0010394)
(-0.0041427 -0.0032736 0.0012607)
(-0.0041427 -0.002353 0.0026017)
(-0.0041427 -0.0021741 0.002753)
(-0.0041427 -0.0030764 0.0016857)
(-0.0041427 -0.0029568 0.0018876)
(-0.0041427 -0.0028242 0.0020807)
(-0.0041427 -0.0026788 0.0022649)
(-0.0041427 -0.003182 0.0014767)
(-0.0041427 -0.0015821 0.0031309)
(-0.0041427 -0.0025217 0.0024386)
(-0.0041427 -0.0013695 0.0032296)
(-0.0041427 0.0002349 0.0035001)
(-0.0041427 0.0004676 0.0034767)
(-0.0041427 0.0006987 0.0034376)
(-0.0041427 0.0009268 0.0033833)
(-0.0041427 -0.0004676 0.0034767)
(-0.0041427 -0.0002349 0.0035001)
(-0.0041427 0 0.003508)
(-0.0041427 -0.0006987 0.0034376)
(-0.0041427 -0.0011507 0.0033138)
(-0.0041427 -0.0009268 0.0033833)
(-0.0041427 0.0011507 0.0033138)
)


// edges:

352
(
(258 259)
(259 260)
(261 262)
(262 263)
(264 258)
(260 261)
(265 266)
(267 268)
(269 270)
(271 267)
(268 272)
(273 269)
(266 274)
(270 275)
(276 265)
(277 271)
(263 276)
(275 277)
(274 273)
(272 278)
(278 279)
(280 281)
(282 283)
(284 285)
(286 287)
(287 288)
(288 289)
(290 284)
(291 280)
(279 292)
(289 293)
(294 295)
(283 291)
(295 290)
(292 282)
(281 294)
(285 286)
(296 297)
(298 299)
(293 298)
(300 301)
(302 303)
(303 304)
(299 305)
(304 306)
(307 308)
(308 302)
(309 310)
(305 309)
(297 300)
(310 296)
(301 307)
(311 312)
(313 314)
(315 316)
(312 317)
(317 318)
(319 320)
(320 321)
(316 313)
(322 323)
(306 319)
(321 322)
(314 311)
(323 315)
(324 325)
(326 327)
(325 328)
(329 330)
(331 332)
(333 334)
(332 326)
(335 336)
(330 337)
(327 338)
(318 324)
(336 339)
(339 331)
(337 333)
(334 335)
(328 329)
(338 340)
(341 342)
(343 344)
(342 343)
(345 346)
(346 347)
(347 341)
(348 345)
(340 349)
(349 350)
(350 348)
(351 264)
(344 351)
(0 1)
(2 3)
(4 2)
(5 4)
(6 5)
(7 0)
(8 6)
(9 8)
(10 9)
(11 10)
(1 12)
(3 7)
(13 14)
(15 16)
(17 18)
(19 20)
(21 22)
(23 19)
(24 15)
(25 24)
(26 27)
(16 28)
(29 30)
(20 17)
(22 23)
(31 32)
(33 34)
(18 35)
(36 26)
(27 37)
(28 11)
(38 39)
(37 40)
(14 41)
(42 43)
(44 36)
(40 42)
(41 25)
(45 44)
(39 29)
(35 45)
(32 21)
(34 31)
(30 13)
(43 38)
(46 47)
(48 49)
(50 51)
(52 53)
(51 54)
(55 56)
(57 58)
(59 60)
(53 61)
(56 62)
(63 57)
(64 65)
(66 63)
(67 68)
(47 59)
(58 55)
(54 69)
(70 66)
(71 72)
(61 64)
(73 74)
(72 75)
(49 71)
(75 33)
(69 48)
(76 67)
(77 50)
(74 76)
(78 77)
(68 78)
(60 52)
(65 73)
(62 46)
(79 80)
(81 82)
(83 84)
(85 86)
(87 85)
(88 87)
(89 79)
(90 91)
(82 92)
(91 83)
(93 94)
(95 89)
(96 70)
(97 98)
(86 95)
(99 97)
(100 101)
(102 103)
(104 105)
(98 88)
(106 100)
(107 96)
(108 106)
(101 99)
(103 109)
(92 102)
(110 104)
(94 107)
(111 110)
(109 93)
(105 90)
(80 111)
(84 81)
(112 113)
(114 115)
(116 117)
(118 119)
(120 121)
(113 122)
(123 124)
(115 125)
(119 126)
(127 108)
(121 118)
(128 120)
(129 130)
(131 128)
(132 133)
(134 131)
(117 127)
(125 135)
(136 123)
(130 137)
(122 129)
(135 136)
(138 114)
(139 138)
(133 139)
(137 116)
(124 112)
(126 132)
(140 141)
(142 134)
(143 144)
(145 146)
(146 147)
(148 149)
(150 151)
(152 153)
(154 155)
(156 157)
(158 150)
(147 142)
(159 145)
(157 160)
(161 162)
(163 143)
(164 165)
(155 161)
(166 152)
(167 166)
(168 167)
(169 168)
(170 154)
(160 170)
(153 164)
(144 159)
(171 148)
(151 156)
(165 158)
(149 163)
(141 171)
(172 140)
(162 172)
(173 174)
(175 176)
(177 178)
(179 180)
(181 182)
(183 184)
(185 181)
(180 175)
(12 183)
(186 187)
(188 189)
(184 188)
(190 191)
(192 193)
(191 194)
(195 185)
(182 192)
(176 190)
(196 195)
(178 169)
(187 197)
(198 177)
(174 186)
(197 196)
(194 173)
(193 198)
(199 179)
(189 199)
(200 201)
(202 203)
(204 205)
(206 207)
(207 208)
(209 200)
(210 211)
(208 212)
(213 202)
(203 210)
(214 215)
(211 216)
(216 217)
(205 218)
(215 206)
(212 219)
(201 204)
(219 213)
(217 209)
(220 221)
(222 220)
(223 224)
(225 226)
(226 227)
(227 214)
(228 223)
(229 230)
(230 231)
(224 229)
(221 228)
(231 225)
(232 233)
(234 235)
(235 236)
(218 232)
(233 234)
(236 237)
(238 239)
(240 241)
(242 243)
(244 240)
(245 246)
(247 248)
(249 250)
(237 251)
(239 252)
(253 245)
(254 238)
(241 255)
(255 247)
(248 222)
(250 256)
(256 254)
(243 249)
(257 253)
(246 244)
(251 242)
(252 257)
)

// * * * * * * * * * * * * * * * * * * * * * * * * * * * * * * * * * * * * * //


// ************************************************************************* //
