/*--------------------------------*- C++ -*----------------------------------*\
  =========                 |
  \\      /  F ield         | OpenFOAM: The Open Source CFD Toolbox
   \\    /   O peration     | Website:  https://openfoam.org
    \\  /    A nd           | Version:  7
     \\/     M anipulation  |
\*---------------------------------------------------------------------------*/
FoamFile
{
    version     2.0;
    format      ascii;
    class       extendedFeatureEdgeMesh;
    location    "constant/extendedFeatureEdgeMesh";
    object      cylinder.extendedFeatureEdgeMesh;
}
// * * * * * * * * * * * * * * * * * * * * * * * * * * * * * * * * * * * * * //

// points

400
(
(-0.00415 0.0263572 0.0024958)
(-0.00415 0.0264225 0.0016665)
(0.114704 0.0265122 0.0016114)
(0.114704 0.0264469 0.0024407)
(-0.00415 -0.0249214 0.0089738)
(-0.00415 -0.0246274 0.009752)
(0.114704 -0.0245377 0.0096969)
(0.114704 -0.0248318 0.0089187)
(-0.00415 -0.0016689 -0.0264248)
(-0.00415 -0.0024982 -0.0263596)
(0.114704 -0.0024085 -0.0264147)
(0.114704 -0.0015792 -0.02648)
(-0.00415 0.0209179 0.0162341)
(-0.00415 0.0214173 0.0155688)
(0.114704 0.021507 0.0155137)
(0.114704 0.0210075 0.0161789)
(-0.00415 0.0162242 0.0209278)
(-0.00415 0.0168734 0.0204076)
(0.114704 0.0169631 0.0203525)
(0.114704 0.0163139 0.0208726)
(-0.00415 0.0192976 0.0181312)
(-0.00415 0.0198575 0.0175159)
(0.114704 0.0199471 0.0174607)
(0.114704 0.0193873 0.018076)
(-0.00415 0.017506 0.0198674)
(-0.00415 0.0181213 0.0193075)
(0.114704 0.0182109 0.0192523)
(0.114704 0.0175957 0.0198122)
(-0.00415 0.0209179 -0.0162266)
(-0.00415 0.0203977 -0.0168758)
(0.114704 0.0204874 -0.0169309)
(0.114704 0.0210075 -0.0162817)
(-0.00415 -0.0168856 0.0204076)
(-0.00415 -0.0162364 0.0209278)
(0.114704 -0.0161468 0.0208726)
(0.114704 -0.016796 0.0203525)
(-0.00415 -0.0249214 -0.0089663)
(-0.00415 -0.0251909 -0.0081793)
(0.114704 -0.0251012 -0.0082344)
(0.114704 -0.0248318 -0.0090214)
(-0.00415 0.0260057 0.0049658)
(-0.00415 0.0261487 0.0041463)
(0.114704 0.0262384 0.0040911)
(0.114704 0.0260954 0.0049106)
(-0.00415 0.0203977 0.0168833)
(0.114704 0.0204874 0.0168282)
(-0.00415 -0.0049681 -0.0260081)
(-0.00415 -0.0057827 -0.0258393)
(0.114704 -0.0056931 -0.0258945)
(0.114704 -0.0048785 -0.0260632)
(-0.00415 0.012016 -0.0235909)
(-0.00415 0.0112689 -0.0239568)
(0.114704 0.0113585 -0.024012)
(0.114704 0.0121056 -0.023646)
(-0.00415 0.0264617 0.0008355)
(-0.00415 0.0264747 3.8e-06)
(0.114704 0.0265644 -5.14e-05)
(0.114704 0.0265514 0.0007804)
(-0.00415 -0.0008379 -0.026464)
(0.114704 -0.0007482 -0.0265192)
(-0.00415 0.0057705 0.0258469)
(-0.00415 0.0065794 0.0256527)
(0.114704 0.0066691 0.0255975)
(0.114704 0.0058602 0.0257917)
(-0.00415 0.0065794 -0.0256452)
(-0.00415 0.0057705 -0.0258393)
(0.114704 0.0058602 -0.0258945)
(0.114704 0.0066691 -0.0257003)
(-0.00415 -0.0251909 0.0081868)
(0.114704 -0.0251012 0.0081317)
(-0.00415 0.0256428 0.0065893)
(-0.00415 0.025837 0.0057804)
(0.114704 0.0259267 0.0057252)
(0.114704 0.0257325 0.0065341)
(-0.00415 -0.0181335 -0.0192999)
(-0.00415 -0.0187309 -0.018721)
(0.114704 -0.0186412 -0.0187762)
(0.114704 -0.0180438 -0.0193551)
(-0.00415 -0.0120282 0.0235984)
(-0.00415 -0.0112811 0.0239644)
(0.114704 -0.0111914 0.0239092)
(0.114704 -0.0119385 0.0235432)
(-0.00415 -0.0254355 0.0073917)
(0.114704 -0.0253458 0.0073365)
(-0.00415 0.0254233 0.0073917)
(0.114704 0.025513 0.0073365)
(-0.00415 0.0214173 -0.0155613)
(0.114704 0.021507 -0.0156164)
(-0.00415 -0.0175182 -0.0198598)
(0.114704 -0.0174286 -0.019915)
(-0.00415 0.0262659 0.0033227)
(0.114704 0.0263556 0.0032676)
(-0.00415 -0.0097544 -0.0246175)
(-0.00415 -0.0105229 -0.0242992)
(0.114704 -0.0104333 -0.0243543)
(0.114704 -0.0096647 -0.0246727)
(-0.00415 0.0105107 -0.0242992)
(-0.00415 0.0097421 -0.0246175)
(0.114704 0.0098318 -0.0246727)
(0.114704 0.0106004 -0.0243543)
(-0.00415 -0.0264868 3.8e-06)
(-0.00415 -0.0264739 0.0008355)
(0.114704 -0.0263842 0.0007804)
(0.114704 -0.0263972 -5.14e-05)
(-0.00415 -0.0105229 0.0243067)
(0.114704 -0.0104333 0.0242515)
(-0.00415 -0.007394 0.0254332)
(-0.00415 -0.0065916 0.0256527)
(0.114704 -0.006502 0.0255975)
(0.114704 -0.0073044 0.025378)
(-0.00415 -0.0254355 -0.0073842)
(-0.00415 -0.025655 -0.0065818)
(0.114704 -0.0255654 -0.0066369)
(0.114704 -0.0253458 -0.0074393)
(-0.00415 -0.0246274 -0.0097445)
(0.114704 -0.0245377 -0.0097996)
(-0.00415 -6.1e-06 0.0264846)
(-0.00415 0.0008257 0.0264716)
(0.114704 0.0009153 0.0264165)
(0.114704 8.36e-05 0.0264294)
(-0.00415 0.002486 -0.0263596)
(-0.00415 0.0016566 -0.0264248)
(0.114704 0.0017463 -0.02648)
(0.114704 0.0025756 -0.0264147)
(-0.00415 -0.0155712 0.0214272)
(0.114704 -0.0154815 0.0213721)
(-0.00415 -0.0239667 0.0112788)
(-0.00415 -0.0236007 0.0120258)
(0.114704 -0.0235111 0.0119707)
(0.114704 -0.023877 0.0112236)
(-0.00415 -0.0081892 0.0251886)
(0.114704 -0.0080995 0.0251334)
(-0.00415 -0.0239667 -0.0112712)
(-0.00415 -0.0243091 -0.010513)
(0.114704 -0.0242194 -0.0105682)
(0.114704 -0.023877 -0.0113264)
(-0.00415 0.0016566 0.0264324)
(-0.00415 0.002486 0.0263671)
(0.114704 0.0025756 0.0263119)
(0.114704 0.0017463 0.0263772)
(-0.00415 -0.013486 -0.0227894)
(-0.00415 -0.0141953 -0.0223548)
(0.114704 -0.0141056 -0.0224099)
(0.114704 -0.0133963 -0.0228446)
(-0.00415 0.0097421 0.024625)
(-0.00415 0.0105107 0.0243067)
(0.114704 0.0106004 0.0242515)
(0.114704 0.0098318 0.0245699)
(-0.00415 -0.0198697 -0.0175083)
(-0.00415 -0.02041 -0.0168758)
(0.114704 -0.0203203 -0.0169309)
(0.114704 -0.01978 -0.0175635)
(-0.00415 -0.0214296 -0.0155613)
(-0.00415 -0.0219079 -0.0148807)
(0.114704 -0.0218183 -0.0149358)
(0.114704 -0.0213399 -0.0156164)
(-0.00415 0.0251787 -0.0081793)
(-0.00415 0.0249092 -0.0089663)
(0.114704 0.0249989 -0.0090214)
(0.114704 0.0252684 -0.0082344)
(-0.00415 -0.003325 0.0262758)
(-0.00415 -0.0024982 0.0263671)
(0.114704 -0.0024085 0.0263119)
(0.114704 -0.0032354 0.0262207)
(-0.00415 -0.003325 -0.0262683)
(-0.00415 -0.0041486 -0.0261511)
(0.114704 -0.004059 -0.0262062)
(0.114704 -0.0032354 -0.0263234)
(-0.00415 -0.0187309 0.0187285)
(-0.00415 -0.0181335 0.0193075)
(0.114704 -0.0180438 0.0192523)
(0.114704 -0.0186412 0.0186734)
(-0.00415 0.0049559 -0.0260081)
(0.114704 0.0050456 -0.0260632)
(-0.00415 -0.0263694 0.0024958)
(-0.00415 -0.0262782 0.0033227)
(0.114704 -0.0261885 0.0032676)
(0.114704 -0.0262798 0.0024407)
(-0.00415 -0.0243091 0.0105206)
(0.114704 -0.0242194 0.0104654)
(-0.00415 0.0041364 -0.0261511)
(0.114704 0.0042261 -0.0262062)
(-0.00415 -0.0227993 0.0134836)
(-0.00415 -0.0223646 0.0141929)
(0.114704 -0.022275 0.0141378)
(0.114704 -0.0227096 0.0134285)
(-0.00415 -0.0209301 0.0162341)
(-0.00415 -0.02041 0.0168833)
(0.114704 -0.0203203 0.0168282)
(0.114704 -0.0208404 0.0161789)
(-0.00415 -0.0127634 0.0232091)
(0.114704 -0.0126737 0.023154)
(-0.00415 0.0033128 -0.0262683)
(0.114704 0.0034025 -0.0263234)
(-0.00415 -0.0057827 0.0258469)
(0.114704 -0.0056931 0.0257917)
(-0.00415 -0.0065916 -0.0256452)
(0.114704 -0.006502 -0.0257003)
(-0.00415 0.014183 0.0223623)
(-0.00415 0.0148783 0.0219056)
(0.114704 0.014968 0.0218504)
(0.114704 0.0142727 0.0223071)
(-0.00415 0.0218957 0.0148882)
(-0.00415 0.0223524 0.0141929)
(0.114704 0.0224421 0.0141378)
(0.114704 0.0219854 0.0148331)
(-0.00415 -0.0232115 0.012761)
(0.114704 -0.0231218 0.0127059)
(-0.00415 -0.0097544 0.024625)
(-0.00415 -0.0089762 0.0249191)
(0.114704 -0.0088865 0.0248639)
(0.114704 -0.0096647 0.0245699)
(-0.00415 -0.0193098 -0.0181236)
(0.114704 -0.0192202 -0.0181788)
(-0.00415 0.0264617 -0.000828)
(-0.00415 0.0264225 -0.001659)
(0.114704 0.0265122 -0.0017141)
(0.114704 0.0265514 -0.0008832)
(-0.00415 0.0263572 -0.0024883)
(-0.00415 0.0262659 -0.0033152)
(0.114704 0.0263556 -0.0033703)
(0.114704 0.0264469 -0.0025435)
(-0.00415 -0.0175182 0.0198674)
(0.114704 -0.0174286 0.0198122)
(-0.00415 0.012016 0.0235984)
(-0.00415 0.0127511 0.0232091)
(0.114704 0.0128408 0.023154)
(0.114704 0.0121056 0.0235432)
(-0.00415 0.014183 -0.0223548)
(-0.00415 0.0134737 -0.0227894)
(0.114704 0.0135634 -0.0228446)
(0.114704 0.0142727 -0.0224099)
(-0.00415 0.0081769 0.0251886)
(-0.00415 0.008964 0.0249191)
(0.114704 0.0090536 0.0248639)
(0.114704 0.0082666 0.0251334)
(-0.00415 0.0168734 -0.0204001)
(-0.00415 0.0162242 -0.0209202)
(0.114704 0.0163139 -0.0209754)
(0.114704 0.0169631 -0.0204552)
(-0.00415 0.0134737 0.022797)
(0.114704 0.0135634 0.0227418)
(-0.00415 0.0261487 -0.0041388)
(-0.00415 0.0260057 -0.0049583)
(0.114704 0.0260954 -0.0050134)
(0.114704 0.0262384 -0.0041939)
(-0.00415 0.0148783 -0.021898)
(0.114704 0.014968 -0.0219532)
(-0.00415 -0.0261609 0.0041463)
(0.114704 -0.0260713 0.0040911)
(-0.00415 0.017506 -0.0198598)
(0.114704 0.0175957 -0.019915)
(-0.00415 0.008964 -0.0249116)
(-0.00415 0.0081769 -0.025181)
(0.114704 0.0082666 -0.0252362)
(0.114704 0.0090536 -0.0249667)
(-0.00415 0.0033128 0.0262758)
(-0.00415 0.0041364 0.0261586)
(0.114704 0.0042261 0.0261035)
(0.114704 0.0034025 0.0262207)
(-0.00415 0.0235885 0.0120258)
(-0.00415 0.0239545 0.0112788)
(0.114704 0.0240441 0.0112236)
(0.114704 0.0236782 0.0119707)
(-0.00415 -0.0264347 -0.001659)
(-0.00415 -0.0264739 -0.000828)
(0.114704 -0.0263842 -0.0008832)
(0.114704 -0.0263451 -0.0017141)
(-0.00415 -0.0112811 -0.0239568)
(-0.00415 -0.0120282 -0.0235909)
(0.114704 -0.0119385 -0.023646)
(0.114704 -0.0111914 -0.024012)
(-0.00415 -0.0258492 0.0057804)
(-0.00415 -0.025655 0.0065893)
(0.114704 -0.0255654 0.0065341)
(0.114704 -0.0257596 0.0057252)
(-0.00415 0.0242968 0.0105206)
(0.114704 0.0243865 0.0104654)
(-0.00415 -0.0049681 0.0260156)
(-0.00415 -0.0041486 0.0261586)
(0.114704 -0.004059 0.0261035)
(0.114704 -0.0048785 0.0259604)
(-0.00415 0.0246152 0.009752)
(0.114704 0.0247048 0.0096969)
(-0.00415 0.0187187 -0.018721)
(-0.00415 0.0181213 -0.0192999)
(0.114704 0.0182109 -0.0193551)
(0.114704 0.0188084 -0.0187762)
(-0.00415 0.0192976 -0.0181236)
(0.114704 0.0193873 -0.0181788)
(-0.00415 -0.0260179 -0.0049583)
(-0.00415 -0.0261609 -0.0041388)
(0.114704 -0.0260713 -0.0041939)
(0.114704 -0.0259282 -0.0050134)
(-0.00415 -0.0081892 -0.025181)
(-0.00415 -0.0089762 -0.0249116)
(0.114704 -0.0088865 -0.0249667)
(0.114704 -0.0080995 -0.0252362)
(-0.00415 0.0227871 -0.0134761)
(-0.00415 0.0223524 -0.0141854)
(0.114704 0.0224421 -0.0142405)
(0.114704 0.0228767 -0.0135312)
(-0.00415 0.0254233 -0.0073842)
(0.114704 0.025513 -0.0074393)
(-0.00415 0.0155589 0.0214272)
(0.114704 0.0156486 0.0213721)
(-0.00415 -0.0148906 -0.021898)
(0.114704 -0.0148009 -0.0219532)
(-0.00415 -0.0155712 -0.0214197)
(0.114704 -0.0154815 -0.0214748)
(-0.00415 0.0227871 0.0134836)
(-0.00415 0.0231992 0.012761)
(0.114704 0.0232889 0.0127059)
(0.114704 0.0228767 0.0134285)
(-0.00415 -0.0008379 0.0264716)
(0.114704 -0.0007482 0.0264165)
(-0.00415 -0.0223646 -0.0141854)
(-0.00415 -0.0227993 -0.0134761)
(0.114704 -0.0227096 -0.0135312)
(0.114704 -0.022275 -0.0142405)
(-0.00415 0.025837 -0.0057729)
(-0.00415 0.0256428 -0.0065818)
(0.114704 0.0257325 -0.0066369)
(0.114704 0.0259267 -0.005828)
(-0.00415 -0.0016689 0.0264324)
(0.114704 -0.0015792 0.0263772)
(-0.00415 -0.0258492 -0.0057729)
(0.114704 -0.0257596 -0.005828)
(-0.00415 -0.0232115 -0.0127535)
(-0.00415 -0.0236007 -0.0120183)
(0.114704 -0.0235111 -0.0120734)
(0.114704 -0.0231218 -0.0128086)
(-0.00415 0.0127511 -0.0232016)
(0.114704 0.0128408 -0.0232567)
(-0.00415 -0.0168856 -0.0204001)
(0.114704 -0.016796 -0.0204552)
(-0.00415 0.0049559 0.0260156)
(0.114704 0.0050456 0.0259604)
(-0.00415 0.0239545 -0.0112712)
(-0.00415 0.0235885 -0.0120183)
(0.114704 0.0236782 -0.0120734)
(0.114704 0.0240441 -0.0113264)
(-0.00415 -0.0148906 0.0219056)
(-0.00415 -0.0141953 0.0223623)
(0.114704 -0.0141056 0.0223071)
(0.114704 -0.0148009 0.0218504)
(-0.00415 -0.0209301 -0.0162266)
(0.114704 -0.0208404 -0.0162817)
(-0.00415 0.0073818 -0.0254256)
(0.114704 0.0074715 -0.0254808)
(-0.00415 -0.0260179 0.0049658)
(0.114704 -0.0259282 0.0049106)
(-0.00415 -6.1e-06 -0.0264771)
(0.114704 8.36e-05 -0.0265322)
(-0.00415 0.0112689 0.0239644)
(0.114704 0.0113585 0.0239092)
(-0.00415 -0.0127634 -0.0232016)
(0.114704 -0.0126737 -0.0232567)
(-0.00415 -0.0264347 0.0016665)
(0.114704 -0.0263451 0.0016114)
(-0.00415 0.0251787 0.0081868)
(0.114704 0.0252684 0.0081317)
(-0.00415 0.0008257 -0.026464)
(0.114704 0.0009153 -0.0265192)
(-0.00415 -0.0214296 0.0155688)
(0.114704 -0.0213399 0.0155137)
(-0.00415 0.0218957 -0.0148807)
(0.114704 0.0219854 -0.0149358)
(-0.00415 -0.0162364 -0.0209202)
(0.114704 -0.0161468 -0.0209754)
(-0.00415 -0.007394 -0.0254256)
(0.114704 -0.0073044 -0.0254808)
(-0.00415 0.0249092 0.0089738)
(0.114704 0.0249989 0.0089187)
(-0.00415 0.0187187 0.0187285)
(0.114704 0.0188084 0.0186734)
(-0.00415 0.0155589 -0.0214197)
(0.114704 0.0156486 -0.0214748)
(-0.00415 0.0073818 0.0254332)
(0.114704 0.0074715 0.025378)
(-0.00415 -0.013486 0.022797)
(0.114704 -0.0133963 0.0227418)
(-0.00415 -0.0263694 -0.0024883)
(0.114704 -0.0262798 -0.0025435)
(-0.00415 -0.0219079 0.0148882)
(0.114704 -0.0218183 0.0148331)
(-0.00415 -0.0198697 0.0175159)
(-0.00415 -0.0193098 0.0181312)
(0.114704 -0.0192202 0.018076)
(0.114704 -0.01978 0.0174607)
(-0.00415 -0.0262782 -0.0033152)
(0.114704 -0.0261885 -0.0033703)
(-0.00415 0.0231992 -0.0127535)
(0.114704 0.0232889 -0.0128086)
(-0.00415 0.0246152 -0.0097445)
(0.114704 0.0247048 -0.0097996)
(-0.00415 0.0242968 -0.010513)
(0.114704 0.0243865 -0.0105682)
(-0.00415 0.0198575 -0.0175083)
(0.114704 0.0199471 -0.0175635)
)

// edges

400
(
(0 1)
(2 3)
(4 5)
(6 7)
(8 9)
(10 11)
(12 13)
(14 15)
(16 17)
(18 19)
(20 21)
(22 23)
(24 25)
(26 27)
(28 29)
(30 31)
(32 33)
(34 35)
(36 37)
(38 39)
(40 41)
(42 43)
(44 12)
(15 45)
(46 47)
(48 49)
(50 51)
(52 53)
(54 55)
(56 57)
(58 8)
(11 59)
(60 61)
(62 63)
(64 65)
(66 67)
(68 4)
(7 69)
(70 71)
(72 73)
(74 75)
(76 77)
(78 79)
(80 81)
(82 68)
(69 83)
(84 70)
(73 85)
(86 28)
(31 87)
(88 74)
(77 89)
(90 0)
(3 91)
(92 93)
(94 95)
(96 97)
(98 99)
(100 101)
(102 103)
(79 104)
(105 80)
(106 107)
(108 109)
(110 111)
(112 113)
(114 36)
(39 115)
(116 117)
(118 119)
(120 121)
(122 123)
(33 124)
(125 34)
(126 127)
(128 129)
(130 106)
(109 131)
(132 133)
(134 135)
(136 137)
(138 139)
(140 141)
(142 143)
(144 145)
(146 147)
(148 149)
(150 151)
(152 153)
(154 155)
(156 157)
(158 159)
(160 161)
(162 163)
(164 165)
(166 167)
(168 169)
(170 171)
(65 172)
(173 66)
(165 46)
(49 166)
(174 175)
(176 177)
(178 126)
(129 179)
(172 180)
(181 173)
(5 178)
(179 6)
(182 183)
(184 185)
(186 187)
(188 189)
(190 78)
(81 191)
(180 192)
(193 181)
(107 194)
(195 108)
(47 196)
(197 48)
(198 199)
(200 201)
(202 203)
(204 205)
(206 182)
(185 207)
(208 209)
(210 211)
(212 148)
(151 213)
(214 215)
(216 217)
(13 202)
(205 14)
(218 219)
(220 221)
(75 212)
(213 76)
(215 218)
(221 216)
(169 222)
(223 170)
(224 225)
(226 227)
(209 130)
(131 210)
(228 229)
(230 231)
(232 233)
(234 235)
(236 237)
(238 239)
(240 198)
(201 241)
(242 243)
(244 245)
(225 240)
(241 226)
(233 144)
(147 234)
(246 228)
(231 247)
(175 248)
(249 176)
(250 236)
(239 251)
(252 253)
(254 255)
(256 257)
(258 259)
(260 261)
(262 263)
(137 256)
(259 138)
(264 265)
(266 267)
(268 269)
(270 271)
(272 273)
(274 275)
(261 276)
(277 262)
(278 279)
(280 281)
(93 268)
(271 94)
(276 282)
(283 277)
(279 160)
(163 280)
(284 285)
(286 287)
(288 284)
(287 289)
(290 291)
(292 293)
(294 295)
(296 297)
(298 299)
(300 301)
(302 156)
(159 303)
(9 164)
(167 10)
(199 304)
(305 200)
(141 306)
(307 142)
(306 308)
(309 307)
(310 311)
(312 313)
(314 116)
(119 315)
(316 317)
(318 319)
(192 120)
(123 193)
(153 316)
(319 154)
(320 321)
(322 323)
(324 314)
(315 325)
(326 290)
(293 327)
(328 329)
(330 331)
(229 332)
(333 230)
(127 206)
(207 128)
(334 88)
(89 335)
(317 328)
(331 318)
(257 336)
(337 258)
(332 50)
(53 333)
(111 326)
(327 112)
(203 310)
(313 204)
(338 339)
(340 341)
(342 343)
(344 345)
(149 346)
(347 150)
(253 348)
(349 254)
(219 242)
(245 220)
(248 350)
(351 249)
(243 320)
(323 244)
(329 132)
(135 330)
(352 58)
(59 353)
(354 224)
(227 355)
(194 278)
(281 195)
(265 100)
(103 266)
(269 356)
(357 270)
(161 324)
(325 162)
(71 40)
(43 72)
(358 174)
(177 359)
(360 84)
(85 361)
(362 352)
(353 363)
(364 186)
(189 365)
(366 86)
(87 367)
(145 354)
(355 146)
(299 366)
(367 300)
(368 334)
(335 369)
(308 368)
(369 309)
(196 370)
(371 197)
(372 360)
(361 373)
(25 374)
(375 26)
(356 140)
(143 357)
(237 376)
(377 238)
(370 294)
(297 371)
(282 372)
(373 283)
(378 232)
(235 379)
(343 380)
(381 344)
(295 92)
(95 296)
(382 264)
(267 383)
(384 364)
(365 385)
(386 387)
(388 389)
(380 190)
(191 381)
(376 246)
(247 377)
(41 90)
(91 42)
(350 272)
(275 351)
(374 20)
(23 375)
(222 32)
(35 223)
(97 252)
(255 98)
(187 386)
(389 188)
(346 152)
(155 347)
(390 382)
(383 391)
(55 214)
(217 56)
(311 260)
(263 312)
(336 60)
(63 337)
(392 298)
(301 393)
(183 384)
(385 184)
(37 110)
(113 38)
(348 64)
(67 349)
(339 392)
(393 340)
(61 378)
(379 62)
(387 168)
(171 388)
(291 390)
(391 292)
(104 208)
(211 105)
(117 136)
(139 118)
(157 394)
(395 158)
(121 362)
(363 122)
(394 396)
(397 395)
(133 114)
(115 134)
(17 24)
(27 18)
(398 288)
(289 399)
(285 250)
(251 286)
(304 16)
(19 305)
(29 398)
(399 30)
(101 358)
(359 102)
(1 54)
(57 2)
(51 96)
(99 52)
(321 302)
(303 322)
(124 342)
(345 125)
(396 338)
(341 397)
(273 82)
(83 274)
(21 44)
(45 22)
)

// concaveStart mixedStart nonFeatureStart
0 0 0
// internalStart flatStart openStart multipleStart
0 0 0 400
// normals

400
(
(0.0007159818 -0.9969139 -0.07849885)
(0.0007159819 -0.9969139 -0.07849884)
(-0.0008698538 0.9354665 -0.3534143)
(-0.000869081 0.9354265 -0.3535201)
(0.0004030213 0.0783787 0.9969236)
(0.0004037698 0.07849886 0.9969141)
(0.0003252825 -0.7997548 -0.6003266)
(0.0003239634 -0.7996536 -0.6004615)
(0.0001101398 -0.6253098 -0.7803766)
(0.0001094102 -0.6252375 -0.7804345)
(0.0002450044 -0.7396194 -0.6730253)
(0.0002456935 -0.7396785 -0.6729604)
(0.000163862 -0.6730253 -0.7396194)
(0.0001645143 -0.6730866 -0.7395636)
(0.0008788456 -0.7803755 0.6253106)
(0.0008781979 -0.7804342 0.6252372)
(-0.0008338347 0.6253106 -0.7803755)
(-0.0008331487 0.6252373 -0.7804343)
(-0.0005638093 0.9460673 0.3239697)
(-0.0005631002 0.9461037 0.3238634)
(0.0006636484 -0.9851145 -0.171898)
(0.0006636316 -0.9851142 -0.1719001)
(0.0002978907 -0.7803766 -0.6253097)
(0.0002991973 -0.7804809 -0.6251796)
(0.0003018058 0.202906 0.9791982)
(0.0003010891 0.2027922 0.9792218)
(0.000748678 -0.4398413 0.8980752)
(0.0007479792 -0.4399374 0.8980281)
(0.0007473675 -0.9998776 -0.015628)
(0.0007473648 -0.9998776 -0.01562836)
(0.0004283681 0.04712115 0.9988891)
(0.0004283542 0.04711892 0.9988892)
(-0.0002754146 -0.233447 -0.9723695)
(-0.0002754136 -0.2334472 -0.9723694)
(0.0006277098 -0.2333327 0.9723968)
(0.0006269597 -0.2334471 0.9723693)
(-0.0008634033 0.9460671 -0.3239696)
(-0.0008641697 0.9461036 -0.323863)
(0.0006254285 -0.9723693 -0.233447)
(0.0006254452 -0.9723698 -0.2334449)
(-0.0001916616 0.6959011 0.7181376)
(-0.000191681 0.6958988 0.7181398)
(-0.0007490974 0.4399374 -0.8980281)
(-0.0007491088 0.4399388 -0.8980275)
(-0.0008576552 0.9557941 -0.2940357)
(-0.0008578928 0.9558044 -0.2940022)
(0.0006054261 -0.964561 -0.2638594)
(0.0006054261 -0.964561 -0.2638594)
(0.0008812147 -0.799755 0.6003259)
(0.0008818882 -0.7996965 0.6004038)
(-0.0001644422 0.6730253 0.7396194)
(-0.0001639434 0.6730855 0.7395647)
(0.0006992669 -0.9939596 -0.1097447)
(0.0006992666 -0.9939596 -0.1097448)
(0.0001398279 0.3826595 0.9238894)
(0.0001402312 0.3827204 0.9238642)
(0.000717856 -0.3826171 0.9239067)
(0.0007171322 -0.3827203 0.923864)
(-0.0007618005 0.9998795 -0.01550711)
(-0.0007610212 0.9998776 -0.01562612)
(-0.0007334878 0.4114741 -0.9114212)
(-0.0007338607 0.4115194 -0.9114007)
(-0.0006468862 0.2638594 -0.9645609)
(-0.0006468862 0.2638594 -0.9645609)
(-0.0006048169 0.964561 0.2638594)
(-0.0006055578 0.9645302 0.2639719)
(-0.0005413817 0.9354667 0.3534144)
(-0.0005420941 0.9354267 0.3535202)
(-0.0004517638 -0.01562613 -0.9998778)
(-0.0004526701 -0.01550935 -0.9998796)
(0.0005221641 -0.07836929 0.9969243)
(0.0005213474 -0.07849885 0.9969141)
(-0.00082385 0.600384 -0.7997114)
(-0.0008240314 0.6004038 -0.7996966)
(-0.0008809403 0.898004 -0.4399865)
(-0.0008820555 0.8980749 -0.4398417)
(-0.0006655416 0.2939999 -0.9558052)
(-0.0006658274 0.2940359 -0.9557941)
(-0.0004966839 0.911376 0.4115746)
(-0.0004966712 0.9113768 0.4115727)
(-0.0004038277 -0.07848945 -0.9969149)
(-0.0004037716 -0.07849663 -0.9969143)
(9.94306e-07 0.5224464 0.8526722)
(1.624542e-06 0.5225343 0.8526183)
(-0.000140326 -0.3826172 -0.923907)
(-0.0001394464 -0.3827204 -0.9238642)
(-0.0002727241 0.7603507 0.6495127)
(-0.0002722496 0.7604007 0.6494541)
(-0.0003502266 0.8181692 0.5749774)
(-0.0003508386 0.8181123 0.5750583)
(0.0008641895 -0.9460664 0.3239716)
(0.0008641895 -0.9460664 0.3239716)
(-0.00054446 0.1097579 -0.9939582)
(-0.0005434506 0.1096275 -0.9939726)
(0.0003527546 0.1408822 0.9900263)
(0.0003527686 0.1408844 0.990026)
(-0.0008587529 0.6959621 -0.718078)
(-0.0008581265 0.6958997 -0.7181384)
(0.0006070911 -0.2029059 0.979198)
(0.0006078302 -0.202792 0.9792216)
(0.0003271094 0.1719002 0.9851143)
(0.0003270958 0.171898 0.9851147)
(-0.0008009761 0.9939724 -0.1096275)
(-0.0008001949 0.9939595 -0.1097447)
(-0.0008789654 0.9113757 -0.4115744)
(-0.0008789795 0.9113766 -0.4115726)
(0.0005864188 -0.1719001 0.9851142)
(0.0005864321 -0.1718981 0.9851146)
(-0.0008749883 0.9239066 -0.382617)
(-0.0008746739 0.9238891 -0.3826594)
(-0.0008849942 0.852618 -0.5225341)
(-0.0008857157 0.8526718 -0.5224462)
(-0.0008788559 0.7804342 -0.6252372)
(-0.0008793833 0.7804806 -0.6251793)
(-0.0007636249 0.4679596 -0.8837495)
(-0.0007628289 0.4678652 -0.8837995)
(0.0005653013 -0.1408822 0.9900262)
(0.0005652878 -0.1408843 0.9900259)
(-0.0006275868 0.2334471 -0.9723693)
(-0.0006275858 0.233447 -0.9723693)
(0.0002748872 0.2333328 0.9723969)
(0.0002756104 0.233447 0.9723695)
(2.615439e-05 -0.5490003 -0.8358222)
(2.615439e-05 -0.5490003 -0.8358222)
(0.0003762976 -0.8358221 -0.5490003)
(0.0003762976 -0.8358221 -0.5490003)
(-0.00088525 0.8686127 -0.4954909)
(-0.00088525 0.8686127 -0.4954909)
(-0.0007012437 0.3535202 -0.9354266)
(-0.0007003908 0.3534144 -0.9354666)
(-0.0002456187 0.7396194 0.6730253)
(-0.0002450791 0.7396785 0.6729604)
(0.000775708 -0.998889 0.04711892)
(0.0007757501 -0.9988887 0.04712457)
(0.0003508514 -0.8181123 -0.5750583)
(0.0003508514 -0.8181123 -0.5750583)
(0.0008010205 -0.9939595 0.1097447)
(0.0008011179 -0.993958 0.1097578)
(-0.0002181856 0.7181376 0.6959011)
(-0.0002186994 0.7180794 0.6959612)
(0.000788831 -0.9969139 0.07849884)
(0.0007887612 -0.9969146 0.07848944)
(-0.0008508768 0.6730251 -0.7396192)
(-0.0008514663 0.6730853 -0.7395644)
(-5.648273e-05 -0.4680098 -0.8837233)
(-5.777107e-05 -0.4678653 -0.8837998)
(-0.0006839023 0.3239717 -0.9460665)
(-0.0006838835 0.3239693 -0.9460673)
(0.0007903028 -0.5224462 0.8526719)
(0.0007896226 -0.5225341 0.852618)
(-0.000195186 -0.3239347 -0.9460794)
(-0.0001948975 -0.3239694 -0.9460675)
(0.000834326 -0.6252373 0.7804343)
(0.0008337055 -0.6253095 0.7803764)
(-1.620448e-06 -0.5225343 -0.8526183)
(-1.620448e-06 -0.5225343 -0.8526183)
(0.0008231595 -0.9851144 0.1718979)
(0.0008231757 -0.985114 0.1719001)
(-2.95499e-05 -0.4954016 -0.8686641)
(-2.873713e-05 -0.4954911 -0.868613)
(-0.0001668071 -0.3535602 -0.9354117)
(-0.0001680334 -0.3534145 -0.9354668)
(0.0008018484 -0.5490846 0.8357664)
(0.0008025301 -0.5489986 0.8358229)
(-0.0008118102 0.9900092 -0.1410007)
(-0.0008124933 0.9900236 -0.140899)
(0.0008426665 -0.6494539 0.7604005)
(0.0008432833 -0.6493842 0.76046)
(0.0006838132 -0.3238264 0.9461163)
(0.0006828273 -0.3239713 0.9460667)
(-0.0003526341 -0.1408844 -0.990026)
(-0.000352652 -0.1408822 -0.9900263)
(0.0004726381 -0.8980051 -0.4399848)
(0.0004738721 -0.8980752 -0.4398418)
(-0.0003779646 -0.1097579 -0.9939583)
(-0.0003789873 -0.1096275 -0.9939727)
(-0.0007319792 0.9988889 0.04712115)
(-0.0007312309 0.9988943 0.04700615)
(8.43984e-05 0.4398418 0.8980752)
(8.504733e-05 0.4399371 0.8980286)
(-0.0008414474 0.9723692 -0.233447)
(-0.0008414621 0.9723697 -0.2334449)
(0.0004967505 -0.9114213 -0.4114741)
(0.0004959142 -0.9113768 -0.4115727)
(-0.0005862725 0.171898 -0.9851146)
(-0.0005871851 0.1720153 -0.9850941)
(0.0001126518 0.4115746 0.9113761)
(0.0001122819 0.4115195 0.9114009)
(0.0005190488 -0.9238641 -0.3827203)
(0.0005195411 -0.9238885 -0.3826614)
(-0.0005651844 0.1408843 -0.9900259)
(-0.0005651677 0.1408822 -0.9900262)
(0.0008581341 -0.6958997 0.7181384)
(0.0008587155 -0.6958382 0.7181981)
(0.0008651892 -0.7181385 0.6958997)
(0.0008651786 -0.7181396 0.6958986)
(-0.0006629434 0.9851145 0.171898)
(-0.0006637213 0.9850937 0.1720175)
(0.0001941936 0.3238635 0.9461038)
(0.0001948931 0.3239714 0.9460669)
(0.0008857292 -0.852618 0.5225341)
(0.0008850075 -0.8526718 0.5224462)
(0.0008576524 -0.9557947 0.2940337)
(0.0008576679 -0.9557941 0.2940357)
(0.0003780568 0.1097579 0.9939583)
(0.0003779751 0.1097448 0.9939597)
(5.47335e-05 -0.5750584 -0.8181124)
(5.395873e-05 -0.574978 -0.8181689)
(-2.62308e-05 0.5490848 0.8357667)
(-2.685631e-05 0.5489992 0.8358228)
(-5.465055e-05 0.5749774 0.8181693)
(-5.403446e-05 0.5750599 0.8181113)
(0.0004259183 -0.868664 -0.4954016)
(0.0004251168 -0.8686129 -0.4954911)
(-0.0004761675 0.01562613 -0.9998778)
(-0.0004752483 0.01550749 -0.9998796)
(-0.00040123 0.8526182 0.5225342)
(-0.0004005899 0.8526721 0.5224463)
(0.0005435422 -0.1097579 0.9939582)
(0.0005436252 -0.1097448 0.9939597)
(-0.0003755772 0.8358221 0.5490003)
(-0.0003755772 0.8358221 0.5490003)
(0.0008420889 -0.9723692 0.233447)
(0.000842074 -0.9723696 0.233445)
(-0.0004986465 0.04711892 -0.9988892)
(-0.0004995802 0.04723955 -0.9988835)
(-0.0006450225 0.9792216 0.2027921)
(-0.0006442657 0.9792456 0.2026762)
(-0.0004493553 0.8837997 0.4678653)
(-0.0004500217 0.8837497 0.4679597)
(0.0007766414 -0.495491 0.8686127)
(0.000777319 -0.4954014 0.8686638)
(-0.0008839044 0.8837994 -0.4678652)
(-0.0008831626 0.8837494 -0.4679596)
(-0.0001364502 0.649453 0.7604017)
(-0.000136994 0.6493855 0.7604594)
(-0.0004258344 0.8686129 0.4954911)
(-0.0004258378 0.8686126 0.4954916)
(-0.0003277854 -0.171898 -0.9851147)
(-0.0003268529 -0.1720154 -0.9850942)
(0.00076251 -0.4680097 0.883723)
(0.0007628806 -0.4679596 0.8837495)
(-0.0006248166 0.9723693 0.233447)
(-0.0006248036 0.9723698 0.233445)
(0.0004005219 -0.8526182 -0.5225342)
(0.0004013248 -0.8526721 -0.5224463)
(0.0008816991 -0.898028 0.4399374)
(0.000881314 -0.8980519 0.4398885)
(-0.0008025134 0.5490001 -0.8358219)
(-0.0008025179 0.5490006 -0.8358215)
(-0.0002991441 0.7804336 0.6252386)
(-0.0002991355 0.7804345 0.6252375)
(0.0006658112 -0.2940357 0.9557942)
(0.0006658238 -0.2940339 0.9557948)
(0.0008125039 -0.9900257 0.1408844)
(0.000812487 -0.990026 0.1408821)
(-0.0008233191 0.9851144 -0.1718979)
(-0.0008225098 0.9850936 -0.1720174)
(0.0008330345 -0.9792215 0.2027921)
(0.0008330345 -0.9792215 0.2027921)
(-0.000473422 0.8980274 0.4399393)
(-0.0004730696 0.8980522 0.4398887)
(0.0004524891 0.015747 0.9998759)
(0.000451735 0.01562613 0.9998778)
(-8.543371e-05 -0.4399371 -0.8980286)
(-8.541398e-05 -0.4399393 -0.8980275)
(-0.0006076594 0.2027921 -0.9792216)
(-0.0006076594 0.2027921 -0.9792216)
(-0.0007465642 0.9998795 0.01550525)
(-0.0007473528 0.9998776 0.01562612)
(5.653641e-05 0.4679598 0.8837498)
(5.653641e-05 0.4679598 0.8837498)
(-0.0005222572 0.07849886 -0.9969141)
(-0.0005222398 0.07849663 -0.9969142)
(0.0006448372 -0.9792216 -0.2027921)
(0.0006448372 -0.9792216 -0.2027921)
(-0.0007879359 0.9969141 -0.07849662)
(-0.0007879212 0.9969139 -0.07849884)
(0.0005847962 -0.9557949 -0.2940337)
(0.0005850484 -0.9558045 -0.2940023)
(0.0004754116 -0.015747 0.9998759)
(0.0004761557 -0.01562801 0.9998778)
(-0.0008823791 0.7996965 -0.6004038)
(-0.0008818698 0.7996533 -0.6004613)
(0.0008840367 -0.8181121 0.5750581)
(0.0008840367 -0.8181121 0.5750581)
(-0.0001130936 -0.4114742 -0.9114214)
(-0.0001127053 -0.4115191 -0.9114011)
(0.0008853223 -0.8358218 0.5490001)
(0.0008853223 -0.8358218 0.5490001)
(-0.0001095305 0.6252386 0.7804337)
(-0.0001089723 0.6253098 0.7803766)
(-8.128703e-05 0.6004615 0.7996536)
(-8.231851e-05 0.6003267 0.7997549)
(0.0002489589 0.263972 0.9645303)
(0.0002482417 0.2638595 0.9645611)
(0.0005638054 -0.9460666 -0.3239717)
(0.0005638082 -0.9460667 -0.3239713)
(0.0001923417 -0.6959612 -0.7180794)
(0.0001910098 -0.6958396 -0.7181972)
(2.946249e-05 0.4954911 0.868613)
(2.883227e-05 0.4954016 0.8686641)
(0.0008238534 -0.6004038 0.7996966)
(0.0008244987 -0.6003265 0.7997546)
(0.0002220341 0.294002 0.9558048)
(0.0002222393 0.2940339 0.955795)
(0.0005421587 -0.9354667 -0.3534144)
(0.000541304 -0.9354275 -0.3535182)
(-0.0002220079 -0.2940338 -0.955795)
(-0.0002219898 -0.294036 -0.9557943)
(-0.0007903401 0.5225341 -0.852618)
(-0.0007903401 0.5225341 -0.852618)
(0.0001676405 0.3535183 0.9354276)
(0.0001669601 0.3534145 0.9354668)
(-0.0007151393 0.9969141 0.07849662)
(-0.0007150927 0.9969147 0.07848945)
(-0.0008840293 0.8181689 -0.5749772)
(-0.0008833315 0.8181121 -0.5750581)
(-0.0008701518 0.7396192 -0.6730251)
(-0.0008707806 0.7396782 -0.6729601)
(-0.0007765936 0.4954014 -0.8686638)
(-0.000777359 0.495491 -0.8686127)
(0.0008139372 -0.5749772 0.818169)
(0.000813263 -0.5750602 0.8181107)
(0.0006818616 -0.9900258 -0.1408844)
(0.0006817504 -0.9900237 -0.140899)
(-0.0008323912 0.9792215 -0.2027921)
(-0.0008331842 0.9792455 -0.2026762)
(0.0002187126 -0.7180812 -0.6959593)
(0.0002193615 -0.7181387 -0.6958999)
(-0.0008420919 0.6493842 -0.76046)
(-0.0008427586 0.6494539 -0.7604005)
(0.0007001924 -0.3535582 0.9354123)
(0.0007011852 -0.3534144 0.9354666)
(-0.0008755027 0.7604005 -0.6494539)
(-0.0008749526 0.7603504 -0.6495125)
(-0.0003251908 0.7996972 0.6004034)
(-0.000325195 0.7996968 0.600404)
(-0.000698413 0.9939725 0.1096275)
(-0.0006992597 0.9939581 0.1097579)
(0.0007618674 -0.9998776 0.01562612)
(0.0007618841 -0.9998776 0.01562836)
(0.0004500254 -0.8837497 -0.4679597)
(0.0004500254 -0.8837497 -0.4679597)
(-0.0003017317 -0.2027922 -0.9792218)
(-0.0003017326 -0.2027921 -0.9792218)
(0.0008845256 -0.8686637 0.4954014)
(0.0008852539 -0.8686124 0.4954914)
(-0.0008846018 0.8358218 -0.5490001)