/*--------------------------------*- C++ -*----------------------------------*\
  =========                 |
  \\      /  F ield         | OpenFOAM: The Open Source CFD Toolbox
   \\    /   O peration     | Website:  https://openfoam.org
    \\  /    A nd           | Version:  7
     \\/     M anipulation  |
\*---------------------------------------------------------------------------*/
FoamFile
{
    version     2.0;
    format      ascii;
    class       extendedFeatureEdgeMesh;
    location    "constant/extendedFeatureEdgeMesh";
    object      needle.extendedFeatureEdgeMesh;
}
// * * * * * * * * * * * * * * * * * * * * * * * * * * * * * * * * * * * * * //

// points

1576
(
(-0.004531 -0.0002878 0.0013638)
(-0.004531 -0.0010019 0.0009542)
(-0.004531 0.0004149 0.0013258)
(-0.004531 -0.0002878 0.0013637)
(-0.004531 -0.0010019 0.0009541)
(-0.0045309 -0.0002878 0.0013637)
(-0.004531 0.0009848 -0.0009961)
(-0.004531 0.0009849 -0.0009961)
(-0.004531 0.0007405 0.0011755)
(-0.00515 0.0007405 0.0011755)
(-0.00515 0.0007404 0.0011755)
(-0.00515 0.0004151 0.0013257)
(-0.00515 0.000415 0.0013258)
(-0.00515 -0.0002878 0.0013638)
(-0.00515 -0.0002879 0.0013637)
(-0.00515 -0.0009935 0.0009623)
(-0.00515 -0.0009935 0.0009622)
(-0.00515 -0.0010074 0.0009485)
(-0.00515 -0.0004944 -0.0013053)
(-0.00515 -0.0004944 -0.0013052)
(-0.00515 0.0009946 -0.0009861001)
(-0.00515 0.0009946 -0.0009860001)
(-0.00515 -0.0009041 0.0010429)
(-0.00515 -0.0009135 0.0010353)
(-0.00515 -0.0009218 0.0010284)
(-0.00515 -0.0009238 0.0010266)
(-0.00515 -0.0009296 0.001022)
(-0.00515 -0.0009005 0.001046)
(-0.00515 -0.0008609 0.0010783)
(-0.00515 -0.0008674 0.0010733)
(-0.00515 -0.0008705 0.0010708)
(-0.00515 -0.0008746 0.0010674)
(-0.00515 -0.0008786 0.0010643)
(-0.00515 -0.0008844 0.0010594)
(-0.00515 -0.000887 0.0010573)
(-0.00515 0.0013882 -0.0001004)
(-0.00515 0.0013883 -9.98e-05)
(-0.00515 0.0013893 -8.56e-05)
(-0.00515 0.001387 -0.0001113)
(-0.00515 0.0013871 -0.0001102)
(-0.00515 0.0013881 -0.0001027)
(-0.00515 0.001391 -3.92e-05)
(-0.00515 0.0013912 -3.05e-05)
(-0.00515 0.0013901 -7.28e-05)
(-0.00515 0.0013903 -6.69e-05)
(-0.00515 0.0013915 -7.2e-06)
(-0.00515 0.0013915 -3.6e-06)
(-0.00515 0.0013916 3.3e-05)
(-0.00515 0.0013916 3.44e-05)
(-0.00515 0.0013904 -6.52e-05)
(-0.00515 0.0013907 -5.1e-05)
(-0.00515 0.0013915 3.5e-05)
(-0.00515 0.0013915 3.56e-05)
(-0.00515 0.0013913 4.82e-05)
(-0.00515 0.001391 5.63e-05)
(-0.00515 0.0013861 0.0001277)
(-0.00515 0.0013853 0.0001369)
(-0.00515 0.0013917 3.19e-05)
(-0.00515 0.0013863 0.0001255)
(-0.00515 0.001385 0.0001394)
(-0.00515 0.001385 0.0001395)
(-0.00515 0.0013877 0.00011)
(-0.00515 0.0013864 0.000125)
(-0.00515 0.0013895 -8.15e-05)
(-0.00515 0.0013908 -4.74e-05)
(-0.00515 0.0013895 9.51e-05)
(-0.00515 0.0013888 9.96e-05)
(-0.00515 0.001384 0.0001495)
(-0.00515 0.0013835 0.0001521)
(-0.00515 0.0013853 0.0001371)
(-0.00515 0.0013913 -2.02e-05)
(-0.00515 0.0013916 -1.04e-05)
(-0.00515 0.0013829 0.0001579)
(-0.00515 0.0013851 0.0001384)
(-0.00515 0.0013827 0.0001626)
(-0.00515 0.0013912 -2.52e-05)
(-0.00515 0.0013824 0.0001641)
(-0.00515 0.0013917 2.4e-06)
(-0.00515 0.0013894 -8.42e-05)
(-0.00515 0.0013917 2.24e-05)
(-0.00515 0.0013916 3.77e-05)
(-0.00515 0.0013915 3.81e-05)
(-0.00515 0.0013881 0.0001073)
(-0.00515 0.0013841 0.000149)
(-0.00515 0.0013917 2.01e-05)
(-0.00515 0.0013917 1.8e-05)
(-0.00515 0.0013913 4.69e-05)
(-0.00515 0.0013908 6.18e-05)
(-0.00515 0.0013907 7.25e-05)
(-0.00515 0.0013905 7.75e-05)
(-0.00515 0.0013882 0.0001064)
(-0.00515 0.0013896 8.85e-05)
(-0.00515 0.0013744 0.0002278)
(-0.00515 0.0013741 0.0002293)
(-0.00515 0.0013674 0.0002652)
(-0.00515 0.001365 0.0002746)
(-0.00515 0.0013644 0.0002774)
(-0.00515 0.0013629 0.0002835)
(-0.00515 0.0013711 0.0002461)
(-0.00515 0.0013706 0.0002492)
(-0.00515 0.00136 0.0002949)
(-0.00515 0.0013591 0.0002986)
(-0.00515 0.0013801 0.0001893)
(-0.00515 0.0013787 0.0001992)
(-0.00515 0.0013567 0.0003069)
(-0.00515 0.0013559 0.0003103)
(-0.00515 0.001381 0.0001797)
(-0.00515 0.0013806 0.0001853)
(-0.00515 0.0013497 0.0003336)
(-0.00515 0.0013484 0.0003391)
(-0.00515 0.0013425 0.0003601)
(-0.00515 0.0013415 0.0003641)
(-0.00515 0.0013816 0.0001732)
(-0.00515 0.0013803 0.000187)
(-0.00515 0.0013754 0.0002209)
(-0.00515 0.0013737 0.0002313)
(-0.00515 0.0013727 0.0002374)
(-0.00515 0.0013614 0.0002893)
(-0.00515 0.0013553 0.0003123)
(-0.00515 0.0013688 0.0002583)
(-0.00515 0.0013678 0.0002629)
(-0.00515 0.0013698 0.0002529)
(-0.00515 0.0013729 0.0002365)
(-0.00515 0.0013405 0.0003673)
(-0.00515 0.0013517 0.0003264)
(-0.00515 0.0013513 0.0003276)
(-0.00515 0.0013469 0.0003445)
(-0.00515 0.0013451 0.000351)
(-0.00515 0.0013391 0.0003723)
(-0.00515 0.0013368 0.0003792)
(-0.00515 0.0013539 0.0003174)
(-0.00515 0.0013362 0.0003812)
(-0.00515 0.0013479 0.0003408)
(-0.00515 0.0013317 0.0003965)
(-0.00515 0.0013303 0.0004008)
(-0.00515 0.0013293 0.0004037)
(-0.00515 0.0013265 0.0004131)
(-0.00515 0.0013259 0.0004155)
(-0.00515 0.0013253 0.0004173)
(-0.00515 0.0013785 0.0002002)
(-0.00515 0.0013814 0.0001761)
(-0.00515 0.0013769 0.0002115)
(-0.00515 0.001376 0.0002176)
(-0.00515 0.0013448 0.0003521)
(-0.00515 0.0012547 0.0005855)
(-0.00515 0.0012514 0.0005924)
(-0.00515 0.0013157 0.0004444)
(-0.00515 0.0013134 0.0004509)
(-0.00515 0.0013212 0.0004293)
(-0.00515 0.0012799 0.0005327)
(-0.00515 0.0012783 0.000536)
(-0.00515 0.0012742 0.0005453)
(-0.00515 0.0012705 0.0005532)
(-0.00515 0.0013015 0.0004826)
(-0.00515 0.001301 0.0004838)
(-0.00515 0.0012482 0.0005983)
(-0.00515 0.0012476 0.0005993)
(-0.00515 0.0013216 0.0004278)
(-0.00515 0.0012457 0.0006036)
(-0.00515 0.0012451 0.0006047)
(-0.00515 0.0012448 0.0006053)
(-0.00515 0.0012368 0.00062)
(-0.00515 0.0012811 0.0005299)
(-0.00515 0.0012672 0.0005605)
(-0.00515 0.001265 0.0005653)
(-0.00515 0.001293 0.0005032)
(-0.00515 0.0012909 0.0005076)
(-0.00515 0.0012312 0.0006305)
(-0.00515 0.0012257 0.0006406)
(-0.00515 0.0012254 0.000641)
(-0.00515 0.0012232 0.0006449)
(-0.00515 0.001214 0.000661)
(-0.00515 0.0012127 0.0006634)
(-0.00515 0.001209 0.0006702)
(-0.00515 0.0012054 0.0006763)
(-0.00515 0.001307 0.0004678)
(-0.00515 0.001307 0.0004681)
(-0.00515 0.0012026 0.0006812)
(-0.00515 0.0013052 0.0004728)
(-0.00515 0.0013015 0.0004825)
(-0.00515 0.0012878 0.0005147)
(-0.00515 0.0012931 0.0005028)
(-0.00515 0.0012198 0.000651)
(-0.00515 0.0012003 0.0006854)
(-0.00515 0.0011969 0.0006911)
(-0.00515 0.0011952 0.0006941)
(-0.00515 0.0011926 0.0006982)
(-0.00515 0.0012985 0.0004905)
(-0.00515 0.0012982 0.0004912)
(-0.00515 0.0013105 0.0004586)
(-0.00515 0.0012696 0.0005552)
(-0.00515 0.0012987 0.0004898)
(-0.00515 0.001256 0.0005828)
(-0.00515 0.0012365 0.0006207)
(-0.00515 0.0012361 0.0006214)
(-0.00515 0.0011905 0.0007018)
(-0.00515 0.0012613 0.0005731)
(-0.00515 0.0012628 0.0005698)
(-0.00515 0.0011897 0.000703)
(-0.00515 0.0010895 0.0008491)
(-0.00515 0.0010875 0.0008515)
(-0.00515 0.0010766 0.0008653)
(-0.00515 0.0010749 0.0008676)
(-0.00515 0.0011639 0.0007446)
(-0.00515 0.0011604 0.00075)
(-0.00515 0.0011582 0.0007535)
(-0.00515 0.0011881 0.0007056)
(-0.00515 0.0010836 0.0008565)
(-0.00515 0.0010796 0.0008617)
(-0.00515 0.0010729 0.0008702)
(-0.00515 0.0011553 0.000758)
(-0.00515 0.0011529 0.0007615)
(-0.00515 0.0011806 0.000718)
(-0.00515 0.0011793 0.0007202)
(-0.00515 0.0011746 0.0007278)
(-0.00515 0.0010808 0.0008603)
(-0.00515 0.0010711 0.0008724)
(-0.00515 0.0011801 0.0007188)
(-0.00515 0.0010656 0.000879)
(-0.00515 0.0010644 0.0008806)
(-0.00515 0.0010596 0.0008865)
(-0.00515 0.0011686 0.0007374)
(-0.00515 0.0011436 0.000775)
(-0.00515 0.0011382 0.0007822)
(-0.00515 0.0011311 0.0007926)
(-0.00515 0.0011278 0.0007969)
(-0.00515 0.0011243 0.0008018)
(-0.00515 0.0011223 0.0008047)
(-0.00515 0.0011342 0.0007879)
(-0.00515 0.0011691 0.0007365)
(-0.00515 0.001145 0.0007729)
(-0.00515 0.0011062 0.0008268)
(-0.00515 0.001102 0.0008325)
(-0.00515 0.0011515 0.0007637)
(-0.00515 0.0010983 0.0008374)
(-0.00515 0.0011173 0.0008116)
(-0.00515 0.0011152 0.0008146)
(-0.00515 0.0011093 0.0008225)
(-0.00515 0.0010921 0.0008456)
(-0.00515 0.0010144 0.0009404)
(-0.00515 0.001014 0.0009408)
(-0.00515 0.0010524 0.0008951)
(-0.00515 0.0010494 0.0008987)
(-0.00515 0.0010321 0.0009196)
(-0.00515 0.0010288 0.0009235)
(-0.00515 0.0010281 0.0009244)
(-0.00515 0.0010058 0.0009498)
(-0.00515 0.0009999 0.0009557)
(-0.00515 0.0009882 0.0009675)
(-0.00515 0.000981 0.0009749)
(-0.00515 0.0009775 0.0009783)
(-0.00515 0.0009738 0.0009819)
(-0.00515 0.0009919 0.0009639)
(-0.00515 0.0009664 0.0009897)
(-0.00515 0.0009641 0.0009919)
(-0.00515 0.0009416 0.0010151)
(-0.00515 0.0009342 0.0010224)
(-0.00515 0.0009974 0.0009583)
(-0.00515 0.0009268 0.0010295)
(-0.00515 0.0009222 0.001034)
(-0.00515 0.0010419 0.0009078)
(-0.00515 0.0009531 0.0010033)
(-0.00515 0.0009501 0.0010063)
(-0.00515 0.0009202 0.0010361)
(-0.00515 0.0010442 0.000905)
(-0.00515 0.0009107 0.0010448)
(-0.00515 0.0009094 0.0010461)
(-0.00515 0.0009043 0.0010505)
(-0.00515 0.0008999 0.0010545)
(-0.00515 0.0010211 0.0009328)
(-0.00515 0.0008947 0.0010591)
(-0.00515 0.0010215 0.0009322)
(-0.00515 0.00101 0.0009451)
(-0.00515 0.0009443 0.0010124)
(-0.00515 0.0009693 0.0009863999)
(-0.00515 0.0008916 0.0010618)
(-0.00515 0.0008879 0.0010649)
(-0.00515 0.0008847 0.0010677)
(-0.00515 0.0009592 0.0009968)
(-0.00515 0.0009574 0.0009988)
(-0.00515 0.0010562 0.0008905)
(-0.00515 0.0009178 0.0010382)
(-0.00515 0.0010221 0.0009316)
(-0.00515 0.0009306 0.0010261)
(-0.00515 0.0008737 0.0010765)
(-0.00515 0.0008714 0.0010784)
(-0.00515 0.0008647 0.0010838)
(-0.00515 0.0008579 0.0010893)
(-0.00515 0.0007937 0.0011392)
(-0.00515 0.0007889 0.0011427)
(-0.00515 0.0008004 0.0011345)
(-0.00515 0.0007243 0.0011851)
(-0.00515 0.000722 0.0011865)
(-0.00515 0.0007064 0.0011959)
(-0.00515 0.0007051 0.0011967)
(-0.00515 0.0008189 0.0011204)
(-0.00515 0.0008125 0.0011254)
(-0.00515 0.0006666 0.0012179)
(-0.00515 0.000662 0.0012206)
(-0.00515 0.0006346 0.0012351)
(-0.00515 0.0006229 0.0012412)
(-0.00515 0.0006204 0.0012425)
(-0.00515 0.0006141 0.0012454)
(-0.00515 0.0008048 0.001131)
(-0.00515 0.0006134 0.0012457)
(-0.00515 0.0006023 0.001251)
(-0.00515 0.0005984 0.0012527)
(-0.00515 0.0006803 0.0012107)
(-0.00515 0.0006769 0.0012124)
(-0.00515 0.0007406 0.0011754)
(-0.00515 0.0008504 0.0010953)
(-0.00515 0.0008463 0.0010986)
(-0.00515 0.000826 0.0011147)
(-0.00515 0.0006738 0.0012139)
(-0.00515 0.0006687 0.0012169)
(-0.00515 0.0006588 0.0012225)
(-0.00515 0.0006398 0.0012324)
(-0.00515 0.0006369 0.001234)
(-0.00515 0.0005931 0.001255)
(-0.00515 0.0007646 0.0011597)
(-0.00515 0.0007528 0.0011673)
(-0.00515 0.0008384 0.001105)
(-0.00515 0.000828 0.0011131)
(-0.00515 0.0006978 0.0012007)
(-0.00515 0.000843 0.0011013)
(-0.00515 0.0006915 0.0012047)
(-0.00515 0.000687 0.0012071)
(-0.00515 0.0006821 0.0012096)
(-0.00515 0.0006218 0.0012419)
(-0.00515 0.0007772 0.0011509)
(-0.00515 0.0007693 0.0011564)
(-0.00515 0.0007813 0.001148)
(-0.00515 0.0007121 0.0011924)
(-0.00515 0.0007478 0.0011708)
(-0.00515 0.0006943 0.0012028)
(-0.00515 0.0005863 0.0012583)
(-0.00515 0.0005769 0.0012626)
(-0.00515 0.0005737 0.0012641)
(-0.00515 0.000748 0.0011707)
(-0.00515 0.0004254 0.0013221)
(-0.00515 0.0004152 0.0013257)
(-0.00515 0.0004149 0.0013258)
(-0.00515 0.000404 0.0013286)
(-0.00515 0.0004985 0.0012965)
(-0.00515 0.0004971 0.0012971)
(-0.00515 0.0004533 0.0013125)
(-0.00515 0.0004368 0.0013184)
(-0.00515 0.0004555 0.0013117)
(-0.00515 0.0004039 0.0013286)
(-0.00515 0.0003919 0.0013317)
(-0.00515 0.0003918 0.0013317)
(-0.00515 0.0003843 0.0013338)
(-0.00515 0.0003761 0.0013361)
(-0.00515 0.0003647 0.0013397)
(-0.00515 0.0003645 0.0013397)
(-0.00515 0.0003532 0.0013428)
(-0.00515 0.0003972 0.0013303)
(-0.00515 0.000381 0.0013347)
(-0.00515 0.0003807 0.0013348)
(-0.00515 0.0004767 0.0013048)
(-0.00515 0.0004738 0.0013058)
(-0.00515 0.0005012 0.0012955)
(-0.00515 0.0004255 0.001322)
(-0.00515 0.0003355 0.0013479)
(-0.00515 0.0003348 0.0013481)
(-0.00515 0.0003325 0.0013487)
(-0.00515 0.0005567 0.0012716)
(-0.00515 0.0005534 0.0012731)
(-0.00515 0.0004803 0.0013035)
(-0.00515 0.0005211 0.001287)
(-0.00515 0.0005092 0.0012921)
(-0.00515 0.0005341 0.0012814)
(-0.00515 0.0005304 0.001283)
(-0.00515 0.0003461 0.001345)
(-0.00515 0.0003425 0.001346)
(-0.00515 0.0003251 0.0013502)
(-0.00515 0.0004907 0.0012996)
(-0.00515 0.0003246 0.0013503)
(-0.00515 0.000507 0.001293)
(-0.00515 0.0003099 0.0013539)
(-0.00515 0.000489 0.0013003)
(-0.00515 0.0004842 0.001302)
(-0.00515 0.0005627 0.001269)
(-0.00515 0.0005684 0.0012664)
(-0.00515 0.0003027 0.0013555)
(-0.00515 0.0002937 0.0013577)
(-0.00515 0.0002709 0.0013621)
(-0.00515 0.0002698 0.0013624)
(-0.00515 4.83e-05 0.0013902)
(-0.00515 4.78e-05 0.0013903)
(-0.00515 2.42e-05 0.0013914)
(-0.00515 1.72e-05 0.0013918)
(-0.00515 0.0002316 0.0013692)
(-0.00515 0.0002286 0.0013697)
(-0.00515 0.0002919 0.0013581)
(-0.00515 0.0002902 0.0013585)
(-0.00515 0.000249 0.0013663)
(-0.00515 0.0002466 0.0013667)
(-0.00515 0.0001971 0.0013744)
(-0.00515 0.000192 0.0013752)
(-0.00515 0.0001006 0.0013865)
(-0.00515 9.31e-05 0.0013871)
(-0.00515 1.34e-05 0.0013921)
(-0.00515 0.000224 0.0013706)
(-0.00515 0.0001234 0.0013847)
(-0.00515 0.0001215 0.0013848)
(-0.00515 0.0002148 0.0013721)
(-0.00515 0.0001375 0.0013832)
(-0.00515 0.0001344 0.0013836)
(-0.00515 0.0003054 0.0013548)
(-0.00515 0.0002038 0.0013739)
(-0.00515 0.0001748 0.0013778)
(-0.00515 0.0001689 0.0013786)
(-0.00515 0.0001158 0.0013853)
(-0.00515 7.03e-05 0.0013889)
(-0.00515 6.87e-05 0.001389)
(-0.00515 6.14e-05 0.0013896)
(-0.00515 4.85e-05 0.0013902)
(-0.00515 1.1e-05 0.0013921)
(-0.00515 0.0001789 0.0013775)
(-0.00515 8.45e-05 0.0013878)
(-0.00515 7.5e-05 0.0013886)
(-0.00515 0.0002066 0.0013734)
(-0.00515 0.0001018 0.0013864)
(-0.00515 3.99e-05 0.0013907)
(-0.00515 0.0001608 0.0013801)
(-0.00515 0.0001251 0.0013844)
(-0.00515 6.24e-05 0.0013895)
(-0.00515 2.85e-05 0.0013913)
(-0.00515 0.0002539 0.0013654)
(-0.00515 0.0002658 0.0013631)
(-0.00515 0.0001402 0.0013828)
(-0.00515 2.82e-05 0.0013913)
(-0.00515 0.0001583 0.0013803)
(-0.00515 6.28e-05 0.0013895)
(-0.00515 0.0001498 0.0013816)
(-0.00515 0.0001483 0.0013817)
(-0.00515 0.0001547 0.0013808)
(-0.00515 0.0001432 0.0013823)
(-0.00515 -0.0001076 0.0013902)
(-0.00515 -0.0001165 0.0013899)
(-0.00515 -5.74e-05 0.0013921)
(-0.00515 -6.04e-05 0.001392)
(-0.00515 -1.05e-05 0.0013927)
(-0.00515 -1.08e-05 0.0013928)
(-0.00515 -3.58e-05 0.0013925)
(-0.00515 -4.13e-05 0.0013924)
(-0.00515 -0.0001765 0.001384)
(-0.00515 -0.0001776 0.0013837)
(-0.00515 -1.96e-05 0.0013926)
(-0.00515 -2.22e-05 0.0013927)
(-0.00515 -7.26e-05 0.0013916)
(-0.00515 -7.42e-05 0.0013915)
(-0.00515 -8.12e-05 0.0013912)
(-0.00515 -8.87e-05 0.001391)
(-0.00515 -0.0001737 0.0013844)
(-0.00515 -0.000103 0.0013904)
(-0.00515 -0.0001933 0.0013814)
(-0.00515 -0.0002103 0.0013789)
(-0.00515 -0.0002214 0.001377)
(-0.00515 -0.0002328 0.001375)
(-0.00515 -0.0002337 0.0013748)
(-0.00515 -0.000226 0.0013762)
(-0.00515 -8e-07 0.0013925)
(-0.00515 -6.3e-06 0.0013927)
(-0.00515 2e-06 0.0013924)
(-0.00515 -4e-07 0.0013925)
(-0.00515 -0.0002349 0.0013746)
(-0.00515 -0.0002097 0.001379)
(-0.00515 -0.0002511 0.0013713)
(-0.00515 -4.63e-05 0.0013922)
(-0.00515 -0.0001172 0.0013899)
(-0.00515 -0.0001373 0.0013884)
(-0.00515 -0.000195 0.0013812)
(-0.00515 -5.46e-05 0.0013921)
(-0.00515 -0.0001376 0.0013884)
(-0.00515 -0.0001436 0.0013875)
(-0.00515 -0.0002516 0.0013712)
(-0.00515 -0.0002522 0.0013711)
(-0.00515 -0.000117 0.0013899)
(-0.00515 -0.0001672 0.0013853)
(-0.00515 -0.000169 0.0013849)
(-0.00515 -0.0002621 0.001369)
(-0.00515 -0.000263 0.0013689)
(-0.00515 -0.0002633 0.0013688)
(-0.00515 -0.0002046 0.0013798)
(-0.00515 -0.0001073 0.0013903)
(-0.00515 -0.0002054 0.0013797)
(-0.00515 -0.000224 0.0013766)
(-0.00515 -0.0002773 0.0013659)
(-0.00515 -0.0001635 0.0013858)
(-0.00515 -0.0002778 0.0013658)
(-0.00515 -0.000156 0.0013866)
(-0.00515 -0.0002787 0.0013657)
(-0.00515 -0.000297 0.0013614)
(-0.00515 -0.0002975 0.0013613)
(-0.00515 -0.0003017 0.0013601)
(-0.00515 -0.000302 0.0013601)
(-0.00515 -0.0003578 0.0013443)
(-0.00515 -0.0003739 0.0013393)
(-0.00515 -0.0003801 0.0013374)
(-0.00515 -0.0003901 0.0013343)
(-0.00515 -0.0003033 0.0013597)
(-0.00515 -0.0003035 0.0013597)
(-0.00515 -0.0003925 0.0013334)
(-0.00515 -0.0004051 0.0013288)
(-0.00515 -0.0004053 0.0013287)
(-0.00515 -0.0004245 0.0013216)
(-0.00515 -0.0005032 0.0012912)
(-0.00515 -0.000512 0.0012876)
(-0.00515 -0.0005123 0.0012875)
(-0.00515 -0.0005236 0.001282)
(-0.00515 -0.0005238 0.0012819)
(-0.00515 -0.0005372 0.0012762)
(-0.00515 -0.0005441 0.0012729)
(-0.00515 -0.0005502 0.0012702)
(-0.00515 -0.0003141 0.0013567)
(-0.00515 -0.0003147 0.0013565)
(-0.00515 -0.0003187 0.0013554)
(-0.00515 -0.0003252 0.0013536)
(-0.00515 -0.0003291 0.0013526)
(-0.00515 -0.0003315 0.001352)
(-0.00515 -0.0002961 0.0013616)
(-0.00515 -0.0003789 0.0013378)
(-0.00515 -0.0003909 0.001334)
(-0.00515 -0.0002873 0.0013639)
(-0.00515 -0.0002893 0.0013634)
(-0.00515 -0.0003916 0.0013337)
(-0.00515 -0.000392 0.0013336)
(-0.00515 -0.0003436 0.0013485)
(-0.00515 -0.0003518 0.0013461)
(-0.00515 -0.0003412 0.0013491)
(-0.00515 -0.0004362 0.0013174)
(-0.00515 -0.000448 0.001313)
(-0.00515 -0.0004601 0.0013081)
(-0.00515 -0.000503 0.0012913)
(-0.00515 -0.0004322 0.0013188)
(-0.00515 -0.0004958 0.001294)
(-0.00515 -0.0005124 0.0012874)
(-0.00515 -0.0002872 0.0013639)
(-0.00515 -0.0004625 0.0013073)
(-0.00515 -0.0003022 0.00136)
(-0.00515 -0.0004741 0.0013029)
(-0.00515 -0.0004816 0.0012999)
(-0.00515 -0.0006348 0.001227)
(-0.00515 -0.0006399 0.001224)
(-0.00515 -0.0006139 0.0012388)
(-0.00515 -0.0006148 0.0012383)
(-0.00515 -0.0006454 0.0012209)
(-0.00515 -0.0007013 0.0011884)
(-0.00515 -0.0007036 0.0011871)
(-0.00515 -0.0007184 0.0011781)
(-0.00515 -0.0007198 0.0011772)
(-0.00515 -0.0005904 0.0012514)
(-0.00515 -0.0005916 0.0012508)
(-0.00515 -0.0005585 0.0012667)
(-0.00515 -0.0005635 0.0012643)
(-0.00515 -0.0005673 0.0012627)
(-0.00515 -0.0005789 0.001257)
(-0.00515 -0.0006238 0.001233)
(-0.00515 -0.000582 0.0012555)
(-0.00515 -0.0005832 0.0012549)
(-0.00515 -0.0006231 0.0012333)
(-0.00515 -0.0006522 0.0012172)
(-0.00515 -0.0006605 0.0012123)
(-0.00515 -0.0007393 0.0011645)
(-0.00515 -0.0007401 0.001164)
(-0.00515 -0.0006941 0.0011927)
(-0.00515 -0.0006967 0.0011912)
(-0.00515 -0.0007479 0.0011595)
(-0.00515 -0.000598 0.0012474)
(-0.00515 -0.0005987 0.001247)
(-0.00515 -0.0006639 0.0012104)
(-0.00515 -0.000668 0.0012081)
(-0.00515 -0.0007052 0.0011861)
(-0.00515 -0.0007541 0.0011554)
(-0.00515 -0.0007542 0.0011553)
(-0.00515 -0.0006043 0.001244)
(-0.00515 -0.0006078 0.0012421)
(-0.00515 -0.0006093 0.0012413)
(-0.00515 -0.0006732 0.0012051)
(-0.00515 -0.0006798 0.001201)
(-0.00515 -0.000759 0.0011526)
(-0.00515 -0.0007211 0.0011763)
(-0.00515 -0.0007592 0.0011524)
(-0.00515 -0.0007704 0.0011444)
(-0.00515 -0.0007705 0.0011443)
(-0.00515 -0.0006824 0.0011996)
(-0.00515 -0.0007292 0.0011713)
(-0.00515 -0.0007779 0.0011393)
(-0.00515 -0.00069 0.0011952)
(-0.00515 -0.0005923 0.0012504)
(-0.00515 -0.0007848 0.0011344)
(-0.00515 -0.0006127 0.0012394)
(-0.00515 -0.0007906 0.0011302)
(-0.00515 -0.0008264 0.0011044)
(-0.00515 -0.000832 0.0010999)
(-0.00515 -0.0008059 0.0011193)
(-0.00515 -0.0008095 0.0011167)
(-0.00515 -0.0008124 0.0011146)
(-0.00515 -0.000819 0.0011098)
(-0.00515 -0.0008247 0.0011057)
(-0.00515 -0.0007952 0.0011271)
(-0.00515 -0.0008355 0.0010974)
(-0.00515 -0.0008416 0.001093)
(-0.00515 -0.000845 0.0010903)
(-0.00515 -0.000847 0.0010887)
(-0.00515 -0.0008508 0.0010861)
(-0.00515 -0.0008531 0.0010843)
(-0.00515 -0.0008543 0.0010833)
(-0.00515 -0.0008595 0.0010794)
(-0.00515 -0.0011045 0.0008383)
(-0.00515 -0.0011095 0.000832)
(-0.00515 -0.0011145 0.0008256)
(-0.00515 -0.0010523 0.0009011)
(-0.00515 -0.0010535 0.0008998)
(-0.00515 -0.0011188 0.0008197)
(-0.00515 -0.0010878 0.0008594)
(-0.00515 -0.0010933 0.0008528)
(-0.00515 -0.0010863 0.0008612)
(-0.00515 -0.0010347 0.0009201)
(-0.00515 -0.0010386 0.0009162)
(-0.00515 -0.0010838 0.0008643)
(-0.00515 -0.0010018 0.0009542)
(-0.00515 -0.0010019 0.0009541)
(-0.00515 -0.0009351 0.0010172)
(-0.00515 -0.0009394 0.0010131)
(-0.00515 -0.0010139 0.0009416)
(-0.00515 -0.0010173 0.0009382)
(-0.00515 -0.0009651 0.0009895)
(-0.00515 -0.0009692 0.0009856001)
(-0.00515 -0.0010406 0.0009141)
(-0.00515 -0.0010275 0.0009277)
(-0.00515 -0.0010579 0.0008949)
(-0.00515 -0.0010624 0.0008898)
(-0.00515 -0.0009751 0.00098)
(-0.00515 -0.0009777 0.0009777)
(-0.00515 -0.001066 0.0008857)
(-0.00515 -0.0010687 0.0008826)
(-0.00515 -0.001045 0.0009094)
(-0.00515 -0.0010692 0.0008819)
(-0.00515 -0.0010947 0.000851)
(-0.00515 -0.0009608 0.0009933)
(-0.00515 -0.0009714 0.0009837)
(-0.00515 -0.0009456 0.0010073)
(-0.00515 -0.0009482 0.0010048)
(-0.00515 -0.0010749 0.000875)
(-0.00515 -0.0009338 0.0010183)
(-0.00515 -0.0009552 0.0009986)
(-0.00515 -0.0009574 0.0009964)
(-0.00515 -0.0009911 0.0009646)
(-0.00515 -0.0010236 0.0009319)
(-0.00515 -0.000942 0.0010109)
(-0.00515 -0.0010633 0.0008887)
(-0.00515 -0.0010733 0.0008769)
(-0.00515 -0.0010956 0.0008498)
(-0.00515 -0.0011037 0.0008394)
(-0.00515 -0.0011377 0.0007935)
(-0.00515 -0.0011419 0.0007876)
(-0.00515 -0.0012024 0.0006911)
(-0.00515 -0.0012071 0.0006822)
(-0.00515 -0.001258 0.0005777)
(-0.00515 -0.0012631 0.0005664)
(-0.00515 -0.0012653 0.0005611)
(-0.00515 -0.0011858 0.0007199)
(-0.00515 -0.0011889 0.000715)
(-0.00515 -0.001194 0.000706)
(-0.00515 -0.0011823 0.000726)
(-0.00515 -0.0011833 0.0007242)
(-0.00515 -0.0011993 0.0006967)
(-0.00515 -0.0012094 0.0006781)
(-0.00515 -0.0012118 0.0006734)
(-0.00515 -0.0012147 0.0006679)
(-0.00515 -0.0012262 0.0006449)
(-0.00515 -0.0012287 0.00064)
(-0.00515 -0.0012163 0.0006646)
(-0.00515 -0.0012178 0.0006617)
(-0.00515 -0.0011723 0.0007422)
(-0.00515 -0.0011739 0.0007393)
(-0.00515 -0.0011773 0.000734)
(-0.00515 -0.0011219 0.0008158)
(-0.00515 -0.0011287 0.0008062)
(-0.00515 -0.0011956 0.0007033)
(-0.00515 -0.0012301 0.000637)
(-0.00515 -0.0011566 0.0007659)
(-0.00515 -0.001157 0.0007653)
(-0.00515 -0.001236 0.000626)
(-0.00515 -0.0012369 0.0006241)
(-0.00515 -0.0012517 0.0005928)
(-0.00515 -0.0012552 0.0005843)
(-0.00515 -0.0011593 0.000762)
(-0.00515 -0.0011655 0.0007527)
(-0.00515 -0.0012219 0.0006538)
(-0.00515 -0.0012228 0.0006517)
(-0.00515 -0.0012322 0.0006328)
(-0.00515 -0.0012418 0.000614)
(-0.00515 -0.0012441 0.0006097)
(-0.00515 -0.0011314 0.0008026)
(-0.00515 -0.0011426 0.0007865)
(-0.00515 -0.0011465 0.0007809)
(-0.00515 -0.0011709 0.0007442)
(-0.00515 -0.0012487 0.000599)
(-0.00515 -0.0012657 0.0005601)
(-0.00515 -0.0012688 0.0005531)
(-0.00515 -0.0012692 0.0005522)
(-0.00515 -0.0012694 0.0005516)
(-0.00515 -0.0012758 0.0005359)
(-0.00515 -0.0013384 0.0003311)
(-0.00515 -0.0013401 0.0003243)
(-0.00515 -0.0012802 0.0005252)
(-0.00515 -0.0012803 0.0005249)
(-0.00515 -0.0012914 0.0004948)
(-0.00515 -0.0012924 0.0004908)
(-0.00515 -0.0012936 0.0004878)
(-0.00515 -0.0013027 0.0004591)
(-0.00515 -0.0013062 0.0004478)
(-0.00515 -0.0013164 0.0004131)
(-0.00515 -0.0013194 0.0004031)
(-0.00515 -0.001286 0.0005093)
(-0.00515 -0.001286 0.0005092)
(-0.00515 -0.001321 0.0003972)
(-0.00515 -0.0013228 0.000391)
(-0.00515 -0.0013346 0.000347)
(-0.00515 -0.0013407 0.0003217)
(-0.00515 -0.0013431 0.0003119)
(-0.00515 -0.0013433 0.000311)
(-0.00515 -0.0013437 0.0003093)
(-0.00515 -0.0013442 0.0003075)
(-0.00515 -0.0012804 0.0005248)
(-0.00515 -0.0013087 0.0004389)
(-0.00515 -0.0013103 0.000434)
(-0.00515 -0.0013119 0.000429)
(-0.00515 -0.0013135 0.0004235)
(-0.00515 -0.0013155 0.0004162)
(-0.00515 -0.0013273 0.0003749)
(-0.00515 -0.0013277 0.000373)
(-0.00515 -0.0013443 0.0003069)
(-0.00515 -0.001348 0.0002894)
(-0.00515 -0.0013494 0.0002829)
(-0.00515 -0.0012761 0.0005354)
(-0.00515 -0.0012994 0.0004695)
(-0.00515 -0.0013 0.000467)
(-0.00515 -0.0012879 0.0005043)
(-0.00515 -0.0013311 0.0003609)
(-0.00515 -0.0013338 0.0003499)
(-0.00515 -0.0013466 0.0002965)
(-0.00515 -0.0013469 0.0002954)
(-0.00515 -0.0013236 0.0003878)
(-0.00515 -0.0012763 0.0005349)
(-0.00515 -0.0013289 0.0003683)
(-0.00515 -0.0013503 0.0002781)
(-0.00515 -0.001351 0.0002744)
(-0.00515 -0.0013238 0.0003869)
(-0.00515 -0.0013206 0.0003987)
(-0.00515 -0.0013523 0.0002681)
(-0.00515 -0.001374 0.0001043)
(-0.00515 -0.0013747 9.7e-05)
(-0.00515 -0.0013599 0.0002221)
(-0.00515 -0.0013603 0.000219)
(-0.00515 -0.0013748 9.55e-05)
(-0.00515 -0.0013671 0.0001713)
(-0.00515 -0.0013676 0.0001673)
(-0.00515 -0.0013714 0.0001348)
(-0.00515 -0.0013722 0.0001247)
(-0.00515 -0.0013528 0.0002651)
(-0.00515 -0.0013539 0.0002582)
(-0.00515 -0.0013734 0.0001125)
(-0.00515 -0.0013739 0.0001062)
(-0.00515 -0.0013577 0.0002361)
(-0.00515 -0.0013586 0.0002307)
(-0.00515 -0.0013628 0.0002027)
(-0.00515 -0.0013633 0.0001994)
(-0.00515 -0.0013749 9.43e-05)
(-0.00515 -0.0013752 9.05e-05)
(-0.00515 -0.0013752 8.95e-05)
(-0.00515 -0.0013759 7.7e-05)
(-0.00515 -0.0013761 7.46e-05)
(-0.00515 -0.0013764 6.94e-05)
(-0.00515 -0.0013665 0.0001758)
(-0.00515 -0.0013769 6.16e-05)
(-0.00515 -0.0013562 0.0002455)
(-0.00515 -0.0013569 0.0002412)
(-0.00515 -0.0013547 0.0002543)
(-0.00515 -0.0013682 0.0001623)
(-0.00515 -0.0013723 0.0001242)
(-0.00515 -0.0013699 0.0001477)
(-0.00515 -0.0013703 0.0001449)
(-0.00515 -0.0013789 2.75e-05)
(-0.00515 -0.001379 2.63e-05)
(-0.00515 -0.0013789 3.02e-05)
(-0.00515 -0.0013791 2.49e-05)
(-0.00515 -0.0013792 2.33e-05)
(-0.00515 -0.0013638 0.0001964)
(-0.00515 -0.0013643 0.000193)
(-0.00515 -0.0013652 0.0001857)
(-0.00515 -0.0013696 0.0001502)
(-0.00515 -0.0013712 0.0001366)
(-0.00515 -0.00138 8.1e-06)
(-0.00515 -0.00138 7.3e-06)
(-0.00515 -0.001362 0.0002083)
(-0.00515 -0.0013612 0.0002136)
(-0.00515 -0.0013655 0.0001839)
(-0.00515 -0.0013779 4.54e-05)
(-0.00515 -0.0013781 4.21e-05)
(-0.00515 -0.0013782 4.02e-05)
(-0.00515 -0.0013711 0.0001374)
(-0.00515 -0.00138 6.7e-06)
(-0.00515 -0.0013805 -2.6e-06)
(-0.00515 -0.0013807 -5.8e-06)
(-0.00515 -0.0013806 -6.2e-06)
(-0.00515 -0.0013808 -1.45e-05)
(-0.00515 -0.0013797 -9.51e-05)
(-0.00515 -0.0013795 -0.0001036)
(-0.00515 -0.0013779 -0.0001295)
(-0.00515 -0.0013776 -0.0001336)
(-0.00515 -0.001376 -0.0001677)
(-0.00515 -0.0013748 -0.0001796)
(-0.00515 -0.0013747 -0.0001809)
(-0.00515 -0.0013797 -9.49e-05)
(-0.00515 -0.0013657 -0.0002458)
(-0.00515 -0.0013655 -0.0002468)
(-0.00515 -0.0013634 -0.0002604)
(-0.00515 -0.0013628 -0.0002638)
(-0.00515 -0.0013646 -0.0002522)
(-0.00515 -0.0013611 -0.0002732)
(-0.00515 -0.0013742 -0.0001857)
(-0.00515 -0.0013734 -0.000193)
(-0.00515 -0.0013806 -7.9e-05)
(-0.00515 -0.0013806 -7.94e-05)
(-0.00515 -0.0013807 -6.69e-05)
(-0.00515 -0.0013807 -7.39e-05)
(-0.00515 -0.0013789 -0.0001105)
(-0.00515 -0.0013773 -0.0001415)
(-0.00515 -0.0013769 -0.0001459)
(-0.00515 -0.0013811 -3.83e-05)
(-0.00515 -0.0013811 -4.01e-05)
(-0.00515 -0.0013762 -0.0001621)
(-0.00515 -0.0013607 -0.0002759)
(-0.00515 -0.001381 -4.77e-05)
(-0.00515 -0.001381 -5.39e-05)
(-0.00515 -0.0013786 -0.0001171)
(-0.00515 -0.0013784 -0.0001223)
(-0.00515 -0.001364 -0.0002561)
(-0.00515 -0.0013809 -1.64e-05)
(-0.00515 -0.0013811 -2.82e-05)
(-0.00515 -0.0013675 -0.0002343)
(-0.00515 -0.0013667 -0.0002394)
(-0.00515 -0.0013732 -0.0001947)
(-0.00515 -0.0013808 -6.22e-05)
(-0.00515 -0.0013809 -1.88e-05)
(-0.00515 -0.001381 -2.39e-05)
(-0.00515 -0.0013811 -2.68e-05)
(-0.00515 -0.0013806 -8.38e-05)
(-0.00515 -0.0013729 -0.0001976)
(-0.00515 -0.0013766 -0.000155)
(-0.00515 -0.0013764 -0.0001599)
(-0.00515 -0.0013707 -0.0002134)
(-0.00515 -0.0013706 -0.0002145)
(-0.00515 -0.0013692 -0.0002229)
(-0.00515 -0.0013678 -0.0002326)
(-0.00515 -0.0012972 -0.0005039)
(-0.00515 -0.0012961 -0.0005067)
(-0.00515 -0.0012631 -0.0005818)
(-0.00515 -0.0012605 -0.0005873)
(-0.00515 -0.001349 -0.000335)
(-0.00515 -0.0013479 -0.0003408)
(-0.00515 -0.0013453 -0.0003523)
(-0.00515 -0.0013439 -0.0003584)
(-0.00515 -0.0013403 -0.0003727)
(-0.00515 -0.0013377 -0.0003819)
(-0.00515 -0.0013368 -0.0003851)
(-0.00515 -0.0013534 -0.0003126)
(-0.00515 -0.0013516 -0.000322)
(-0.00515 -0.0013304 -0.0004062)
(-0.00515 -0.0013287 -0.0004122)
(-0.00515 -0.0013458 -0.0003496)
(-0.00515 -0.0013265 -0.0004192)
(-0.00515 -0.0013254 -0.0004228)
(-0.00515 -0.001316 -0.0004518)
(-0.00515 -0.0013129 -0.0004615)
(-0.00515 -0.0013021 -0.0004911)
(-0.00515 -0.0013003 -0.0004958)
(-0.00515 -0.0012987 -0.0005002)
(-0.00515 -0.0013598 -0.000279)
(-0.00515 -0.0013588 -0.0002849)
(-0.00515 -0.0012917 -0.000518)
(-0.00515 -0.0013575 -0.0002922)
(-0.00515 -0.0012908 -0.0005203)
(-0.00515 -0.0012735 -0.0005612)
(-0.00515 -0.0012692 -0.0005702)
(-0.00515 -0.0013426 -0.0003638)
(-0.00515 -0.0013412 -0.000369)
(-0.00515 -0.0012862 -0.0005319)
(-0.00515 -0.0012745 -0.0005591)
(-0.00515 -0.0012798 -0.000548)
(-0.00515 -0.0012782 -0.0005515)
(-0.00515 -0.0012672 -0.0005741)
(-0.00515 -0.0012539 -0.0006007)
(-0.00515 -0.0013339 -0.0003947)
(-0.00515 -0.0013499 -0.0003306)
(-0.00515 -0.0013569 -0.0002941)
(-0.00515 -0.0013541 -0.0003081)
(-0.00515 -0.0013323 -0.0004004)
(-0.00515 -0.0013203 -0.0004386)
(-0.00515 -0.001319 -0.000443)
(-0.00515 -0.001309 -0.000472)
(-0.00515 -0.0013072 -0.0004774)
(-0.00515 -0.0013045 -0.0004847)
(-0.00515 -0.0012834 -0.0005388)
(-0.00515 -0.0012826 -0.0005408)
(-0.00515 -0.0012777 -0.0005527)
(-0.00515 -0.0011942 -0.0007113)
(-0.00515 -0.0011889 -0.0007196)
(-0.00515 -0.001187 -0.0007226)
(-0.00515 -0.0011812 -0.0007316)
(-0.00515 -0.0012225 -0.0006637)
(-0.00515 -0.0012221 -0.0006644)
(-0.00515 -0.0012448 -0.0006189)
(-0.00515 -0.0012374 -0.0006341)
(-0.00515 -0.0012181 -0.0006719)
(-0.00515 -0.0012147 -0.0006777)
(-0.00515 -0.001176 -0.0007395)
(-0.00515 -0.0011724 -0.000745)
(-0.00515 -0.0011779 -0.0007366)
(-0.00515 -0.0012184 -0.0006714)
(-0.00515 -0.0011273 -0.0008093)
(-0.00515 -0.0011258 -0.0008112)
(-0.00515 -0.0011198 -0.0008193)
(-0.00515 -0.0011101 -0.0008324)
(-0.00515 -0.0012332 -0.0006424)
(-0.00515 -0.0012287 -0.0006518)
(-0.00515 -0.0012197 -0.000669)
(-0.00515 -0.0012503 -0.0006075)
(-0.00515 -0.0012463 -0.0006158)