/*--------------------------------*- C++ -*----------------------------------*\
  =========                 |
  \\      /  F ield         | OpenFOAM: The Open Source CFD Toolbox
   \\    /   O peration     | Website:  https://openfoam.org
    \\  /    A nd           | Version:  7
     \\/     M anipulation  |
\*---------------------------------------------------------------------------*/
FoamFile
{
    version     2.0;
    format      ascii;
    class       extendedFeatureEdgeMesh;
    location    "constant/extendedFeatureEdgeMesh";
    object      outlet.extendedFeatureEdgeMesh;
}
// * * * * * * * * * * * * * * * * * * * * * * * * * * * * * * * * * * * * * //

// points

200
(
(0.114704 -0.0007482 -0.0265192)
(0.114704 -0.0015792 -0.02648)
(0.114704 8.36e-05 -0.0265322)
(0.114704 0.0009153 -0.0265192)
(0.114704 0.0017463 -0.02648)
(0.114704 0.0034025 0.0262207)
(0.114704 0.0042261 0.0261035)
(0.114704 0.0025756 -0.0264147)
(0.114704 -0.0024085 -0.0264147)
(0.114704 -0.0032354 -0.0263234)
(0.114704 0.0259267 -0.005828)
(0.114704 0.0257325 -0.0066369)
(0.114704 0.0260954 -0.0050134)
(0.114704 -0.004059 -0.0262062)
(0.114704 -0.0048785 -0.0260632)
(0.114704 -0.0056931 -0.0258945)
(0.114704 -0.0248318 0.0089187)
(0.114704 -0.0245377 0.0096969)
(0.114704 -0.0251012 0.0081317)
(0.114704 0.0042261 -0.0262062)
(0.114704 0.0034025 -0.0263234)
(0.114704 0.0050456 -0.0260632)
(0.114704 0.0058602 -0.0258945)
(0.114704 -0.006502 -0.0257003)
(0.114704 -0.0073044 -0.0254808)
(0.114704 -0.0262798 -0.0025435)
(0.114704 -0.0263451 -0.0017141)
(0.114704 -0.0263842 -0.0008832)
(0.114704 0.0066691 -0.0257003)
(0.114704 0.0074715 -0.0254808)
(0.114704 -0.0080995 -0.0252362)
(0.114704 -0.0088865 -0.0249667)
(0.114704 0.0082666 -0.0252362)
(0.114704 0.0090536 -0.0249667)
(0.114704 -0.0096647 -0.0246727)
(0.114704 -0.0104333 -0.0243543)
(0.114704 0.0098318 -0.0246727)
(0.114704 0.0106004 -0.0243543)
(0.114704 -0.0111914 -0.024012)
(0.114704 -0.0119385 -0.023646)
(0.114704 0.0113585 -0.024012)
(0.114704 -0.0126737 -0.0232567)
(0.114704 -0.0133963 -0.0228446)
(0.114704 -0.0141056 -0.0224099)
(0.114704 0.0135634 -0.0228446)
(0.114704 0.0128408 -0.0232567)
(0.114704 0.0142727 -0.0224099)
(0.114704 -0.0148009 -0.0219532)
(0.114704 -0.0154815 -0.0214748)
(0.114704 0.014968 -0.0219532)
(0.114704 0.0156486 -0.0214748)
(0.114704 -0.0180438 -0.0193551)
(0.114704 -0.0186412 -0.0187762)
(0.114704 -0.0161468 -0.0209754)
(0.114704 -0.016796 -0.0204552)
(0.114704 0.0163139 -0.0209754)
(0.114704 -0.0174286 -0.019915)
(0.114704 0.0169631 -0.0204552)
(0.114704 0.0175957 -0.019915)
(0.114704 0.0182109 -0.0193551)
(0.114704 -0.01978 -0.0175635)
(0.114704 -0.0203203 -0.0169309)
(0.114704 -0.0192202 -0.0181788)
(0.114704 0.0188084 -0.0187762)
(0.114704 0.0193873 -0.0181788)
(0.114704 0.0199471 -0.0175635)
(0.114704 0.0204874 -0.0169309)
(0.114704 -0.0208404 -0.0162817)
(0.114704 -0.0213399 -0.0156164)
(0.114704 0.0210075 -0.0162817)
(0.114704 0.021507 -0.0156164)
(0.114704 -0.0218183 -0.0149358)
(0.114704 -0.022275 -0.0142405)
(0.114704 0.0219854 -0.0149358)
(0.114704 0.0224421 -0.0142405)
(0.114704 -0.0235111 -0.0120734)
(0.114704 -0.023877 -0.0113264)
(0.114704 -0.0231218 -0.0128086)
(0.114704 0.0240441 -0.0113264)
(0.114704 0.0236782 -0.0120734)
(0.114704 0.0232889 -0.0128086)
(0.114704 0.0228767 -0.0135312)
(0.114704 -0.0227096 -0.0135312)
(0.114704 -0.0242194 -0.0105682)
(0.114704 -0.0245377 -0.0097996)
(0.114704 0.0121056 -0.023646)
(0.114704 -0.0248318 -0.0090214)
(0.114704 -0.0251012 -0.0082344)
(0.114704 0.0249989 -0.0090214)
(0.114704 0.0247048 -0.0097996)
(0.114704 0.0243865 -0.0105682)
(0.114704 0.025513 -0.0074393)
(0.114704 0.0252684 -0.0082344)
(0.114704 -0.0253458 -0.0074393)
(0.114704 -0.0255654 -0.0066369)
(0.114704 -0.0257596 -0.005828)
(0.114704 -0.0259282 -0.0050134)
(0.114704 -0.0260713 -0.0041939)
(0.114704 0.0262384 -0.0041939)
(0.114704 -0.0261885 -0.0033703)
(0.114704 0.0082666 0.0251334)
(0.114704 0.0090536 0.0248639)
(0.114704 0.0074715 0.025378)
(0.114704 -0.0263972 -5.14e-05)
(0.114704 0.0265122 -0.0017141)
(0.114704 0.0264469 -0.0025435)
(0.114704 0.0265514 -0.0008832)
(0.114704 0.0265644 -5.14e-05)
(0.114704 0.0265122 0.0016114)
(0.114704 0.0265514 0.0007804)
(0.114704 -0.0263451 0.0016114)
(0.114704 -0.0262798 0.0024407)
(0.114704 -0.0263842 0.0007804)
(0.114704 0.0264469 0.0024407)
(0.114704 -0.0261885 0.0032676)
(0.114704 -0.0260713 0.0040911)
(0.114704 0.0262384 0.0040911)
(0.114704 0.0263556 0.0032676)
(0.114704 -0.0259282 0.0049106)
(0.114704 -0.0257596 0.0057252)
(0.114704 -0.0255654 0.0065341)
(0.114704 0.0257325 0.0065341)
(0.114704 0.0259267 0.0057252)
(0.114704 0.0260954 0.0049106)
(0.114704 -0.0253458 0.0073365)
(0.114704 0.025513 0.0073365)
(0.114704 0.0249989 0.0089187)
(0.114704 0.0252684 0.0081317)
(0.114704 -0.0231218 0.0127059)
(0.114704 -0.0227096 0.0134285)
(0.114704 0.0243865 0.0104654)
(0.114704 0.0247048 0.0096969)
(0.114704 -0.0242194 0.0104654)
(0.114704 -0.023877 0.0112236)
(0.114704 0.0240441 0.0112236)
(0.114704 -0.0235111 0.0119707)
(0.114704 0.0228767 0.0134285)
(0.114704 0.0232889 0.0127059)
(0.114704 -0.022275 0.0141378)
(0.114704 0.0236782 0.0119707)
(0.114704 -0.0218183 0.0148331)
(0.114704 -0.0213399 0.0155137)
(0.114704 0.0224421 0.0141378)
(0.114704 0.0219854 0.0148331)
(0.114704 0.021507 0.0155137)
(0.114704 -0.0208404 0.0161789)
(0.114704 -0.0203203 0.0168282)
(0.114704 -0.01978 0.0174607)
(0.114704 0.0210075 0.0161789)
(0.114704 0.0204874 0.0168282)
(0.114704 0.0199471 0.0174607)
(0.114704 -0.0192202 0.018076)
(0.114704 -0.0186412 0.0186734)
(0.114704 -0.0180438 0.0192523)
(0.114704 0.0193873 0.018076)
(0.114704 0.0188084 0.0186734)
(0.114704 0.0182109 0.0192523)
(0.114704 -0.0174286 0.0198122)
(0.114704 -0.016796 0.0203525)
(0.114704 -0.0148009 0.0218504)
(0.114704 -0.0141056 0.0223071)
(0.114704 0.0175957 0.0198122)
(0.114704 0.0169631 0.0203525)
(0.114704 -0.0161468 0.0208726)
(0.114704 -0.0154815 0.0213721)
(0.114704 0.0163139 0.0208726)
(0.114704 0.0156486 0.0213721)
(0.114704 0.014968 0.0218504)
(0.114704 -0.0133963 0.0227418)
(0.114704 -0.0126737 0.023154)
(0.114704 -0.0119385 0.0235432)
(0.114704 0.0135634 0.0227418)
(0.114704 0.0142727 0.0223071)
(0.114704 0.0128408 0.023154)
(0.114704 -0.0111914 0.0239092)
(0.114704 -0.0104333 0.0242515)
(0.114704 0.0113585 0.0239092)
(0.114704 0.0121056 0.0235432)
(0.114704 0.0106004 0.0242515)
(0.114704 -0.0096647 0.0245699)
(0.114704 -0.0088865 0.0248639)
(0.114704 0.0098318 0.0245699)
(0.114704 -0.0080995 0.0251334)
(0.114704 -0.0073044 0.025378)
(0.114704 0.0263556 -0.0033703)
(0.114704 -0.006502 0.0255975)
(0.114704 -0.0056931 0.0257917)
(0.114704 0.0066691 0.0255975)
(0.114704 0.0058602 0.0257917)
(0.114704 -0.004059 0.0261035)
(0.114704 -0.0032354 0.0262207)
(0.114704 -0.0048785 0.0259604)
(0.114704 0.0050456 0.0259604)
(0.114704 -0.0024085 0.0263119)
(0.114704 -0.0015792 0.0263772)
(0.114704 0.0025756 0.0263119)
(0.114704 -0.0007482 0.0264165)
(0.114704 8.36e-05 0.0264294)
(0.114704 0.0017463 0.0263772)
(0.114704 0.0009153 0.0264165)
)

// edges

200
(
(0 1)
(2 0)
(3 2)
(4 3)
(5 6)
(7 4)
(8 9)
(10 11)
(12 10)
(9 13)
(14 15)
(13 14)
(16 17)
(18 16)
(19 20)
(21 19)
(22 21)
(23 24)
(15 23)
(25 26)
(26 27)
(28 22)
(29 28)
(30 31)
(24 30)
(32 29)
(33 32)
(34 35)
(31 34)
(36 33)
(37 36)
(38 39)
(35 38)
(40 37)
(39 41)
(42 43)
(41 42)
(44 45)
(46 44)
(47 48)
(43 47)
(49 46)
(50 49)
(51 52)
(53 54)
(55 50)
(56 51)
(54 56)
(57 55)
(58 57)
(59 58)
(60 61)
(62 60)
(52 62)
(63 59)
(64 63)
(65 64)
(66 65)
(67 68)
(61 67)
(69 66)
(70 69)
(71 72)
(68 71)
(73 70)
(74 73)
(75 76)
(77 75)
(78 79)
(79 80)
(80 81)
(82 77)
(83 84)
(76 83)
(72 82)
(45 85)
(85 40)
(84 86)
(86 87)
(88 89)
(89 90)
(11 91)
(91 92)
(92 88)
(87 93)
(93 94)
(90 78)
(81 74)
(94 95)
(95 96)
(96 97)
(98 12)
(97 99)
(99 25)
(100 101)
(102 100)
(27 103)
(104 105)
(106 104)
(107 106)
(108 109)
(109 107)
(110 111)
(112 110)
(113 108)
(114 115)
(111 114)
(103 112)
(116 117)
(117 113)
(115 118)
(20 7)
(119 120)
(118 119)
(121 122)
(122 123)
(124 18)
(120 124)
(125 121)
(126 127)
(127 125)
(123 116)
(128 129)
(130 131)
(131 126)
(17 132)
(132 133)
(134 130)
(135 128)
(133 135)
(136 137)
(129 138)
(139 134)
(137 139)
(140 141)
(138 140)
(142 136)
(143 142)
(144 143)
(141 145)
(146 147)
(145 146)
(148 144)
(149 148)
(150 149)
(151 152)
(147 151)
(152 153)
(154 150)
(155 154)
(156 155)
(157 158)
(153 157)
(159 160)
(161 156)
(162 161)
(158 163)
(164 159)
(163 164)
(165 162)
(166 165)
(167 166)
(168 169)
(160 168)
(169 170)
(171 172)
(173 171)
(172 167)
(174 175)
(170 174)
(176 177)
(178 176)
(179 180)
(175 179)
(177 173)
(181 178)
(101 181)
(180 182)
(182 183)
(48 53)
(184 98)
(105 184)
(185 186)
(183 185)
(187 102)
(188 187)
(189 190)
(186 191)
(191 189)
(192 188)
(6 192)
(190 193)
(1 8)
(193 194)
(195 5)
(196 197)
(194 196)
(198 195)
(197 199)
(199 198)
)

// concaveStart mixedStart nonFeatureStart
0 0 0
// internalStart flatStart openStart multipleStart
0 0 0 200
// normals
126{(-1 0 0)}
// normal volume types

126
(
0
0
0
0
0
0
0
0
0
0
0
0
0
0
0
0
0
0
0
0
0
0
0
0
0
0
0
0
0
0
0
0
0
0
0
0
0
0
0
0
0
0
0
0
0
0
0
0
0
0
0
0
0
0
0
0
0
0
0
0
0
0
0
0
0
0
0
0
0
0
0
0
0
0
0
0
0
0
0
0
0
0
0
0
0
0
0
0
0
0
0
0
0
0
0
0
0
0
0
0
0
0
0
0
0
0
0
0
0
0
0
0
0
0
0
0
0
0
0
0
0
0
0
0
0
0
)

// normalDirections

200
(
1(1)
1(1)
1(1)
1(1)
1(1)
1(1)
1(1)
1(1)
1(1)
1(1)
1(1)
1(1)
1(1)
1(1)
1(1)
1(1)
1(1)
1(1)
1(1)
1(1)
1(1)
1(1)
1(1)
1(1)
1(1)
1(1)
1(1)
1(1)
1(1)
1(1)
1(1)
1(1)
1(1)
1(1)
1(1)
1(1)
1(1)
1(1)
1(1)
1(1)
1(1)
1(1)
1(1)
1(1)
1(1)
1(1)
1(1)
1(1)
1(1)
1(1)
1(1)
1(1)
1(1)
1(1)
1(1)
1(1)
1(1)
1(1)
1(1)
1(1)
1(1)
1(1)
1(1)
1(1)
1(1)
1(1)
1(1)
1(1)
1(1)
1(1)
1(1)
1(1)
1(1)
1(1)
1(1)
1(1)
1(1)
1(1)
1(1)
1(1)
1(1)
1(1)
1(1)
1(1)
1(1)
1(1)
1(1)
1(1)
1(1)
1(1)
1(1)
1(1)
1(1)
1(1)
1(1)
1(1)
1(1)
1(1)
1(1)
1(1)
1(1)
1(1)
1(1)
1(1)
1(1)
1(1)
1(1)
1(1)
1(1)
1(1)
1(1)
1(1)
1(1)
1(1)
1(1)
1(1)
1(1)
1(1)
1(1)
1(1)
1(1)
1(1)
1(1)
1(1)
1(1)
1(1)
1(1)
1(1)
1(1)
1(1)
1(1)
1(1)
1(1)
1(1)
1(1)
1(1)
1(1)
1(1)
1(1)
1(1)
1(1)
1(1)
1(1)
1(1)
1(1)
1(1)
1(1)
1(1)
1(1)
1(1)
1(1)
1(1)
1(1)
1(1)
1(1)
1(1)
1(1)
1(1)
1(1)
1(1)
1(1)
1(1)
1(1)
1(1)
1(1)
1(1)
1(1)
1(1)
1(1)
1(1)
1(1)
1(1)
1(1)
1(1)
1(1)
1(1)
1(1)
1(1)
1(1)
1(1)
1(1)
1(1)
1(1)
1(1)
1(1)
1(1)
1(1)
1(1)
1(1)
1(1)
1(1)
1(1)
1(1)
1(1)
1(1)
1(1)
1(1)
1(1)
1(1)
1(1)
)

// edgeNormals

200
(
1(0)
1(0)
1(1)
1(1)
1(2)
1(3)
1(4)
1(5)
1(5)
1(6)
1(7)
1(7)
1(8)
1(8)
1(9)
1(10)
1(10)
1(11)
1(11)
1(12)
1(12)
1(13)
1(13)
1(14)
1(14)
1(15)
1(15)
1(16)
1(16)
1(17)
1(17)
1(18)
1(18)
1(19)
1(20)
1(21)
1(21)
1(22)
1(22)
1(23)
1(23)
1(24)
1(24)
1(25)
1(26)
1(27)
1(28)
1(28)
1(29)
1(30)
1(30)
1(31)
1(32)
1(32)
1(33)
1(34)
1(34)
1(35)
1(36)
1(36)
1(37)
1(37)
1(38)
1(38)
1(39)
1(39)
1(40)
1(40)
1(41)
1(41)
1(42)
1(43)
1(44)
1(44)
1(45)
1(46)
1(46)
1(47)
1(47)
1(48)
1(48)
1(49)
1(49)
1(50)
1(51)
1(51)
1(52)
1(53)
1(54)
1(54)
1(55)
1(56)
1(57)
1(57)
1(58)
1(58)
1(59)
1(60)
1(61)
1(61)
1(62)
1(62)
1(63)
1(63)
1(64)
1(65)
1(65)
1(66)
1(67)
1(67)
1(68)
1(69)
1(70)
1(70)
1(71)
1(71)
1(72)
1(72)
1(73)
1(74)
1(74)
1(75)
1(76)
1(77)
1(77)
1(78)
1(78)
1(79)
1(80)
1(80)
1(81)
1(82)
1(83)
1(83)
1(84)
1(84)
1(85)
1(86)
1(86)
1(87)
1(88)
1(88)
1(89)
1(90)
1(90)
1(91)
1(91)
1(92)
1(93)
1(93)
1(94)
1(95)
1(95)
1(96)
1(97)
1(97)
1(98)
1(99)
1(99)
1(100)
1(101)
1(101)
1(102)
1(102)
1(103)
1(104)
1(104)
1(105)
1(106)
1(106)
1(107)
1(107)
1(108)
1(108)
1(109)
1(110)
1(110)
1(111)
1(111)
1(112)
1(113)
1(113)
1(114)
1(114)
1(115)
1(115)
1(116)
1(117)
1(117)
1(118)
1(118)
1(119)
1(120)
1(121)
1(122)
1(123)
1(123)
1(124)
1(125)
1(125)
)

// featurePointNormals
0()
// featurePointEdges
0()
// regionEdges

200
(
0
1
2
3
4
5
6
7
8
9
10
11
12
13
14
15
16
17
18
19
20
21
22
23
24
25
26
27
28
29
30
31
32
33
34
35
36
37
38
39
40
41
42
43
44
45
46
47
48
49
50
51
52
53
54
55
56
57
58
59
60
61
62
63
64
65
66
67
68
69
70
71
72
73
74
75
76
77
78
79
80
81
82
83
84
85
86
87
88
89
90
91
92
93
94
95
96
97
98
99
100
101
102
103
104
105
106
107
108
109
110
111
112
113
114
115
116
117
118
119
120
121
122
123
124
125
126
127
128
129
130
131
132
133
134
135
136
137
138
139
140
141
142
143
144
145
146
147
148
149
150
151
152
153
154
155
156
157
158
159
160
161
162
163
164
165
166
167
168
169
170
171
172
173
174
175
176
177
178
179
180
181
182
183
184
185
186
187
188
189
190
191
192
193
194
195
196
197
198
199
)



// ************************************************************************* //
