/*--------------------------------*- C++ -*----------------------------------*\
  =========                 |
  \\      /  F ield         | OpenFOAM: The Open Source CFD Toolbox
   \\    /   O peration     | Website:  https://openfoam.org
    \\  /    A nd           | Version:  7
     \\/     M anipulation  |
\*---------------------------------------------------------------------------*/
FoamFile
{
    version     2.0;
    format      ascii;
    class       extendedFeatureEdgeMesh;
    location    "constant/extendedFeatureEdgeMesh";
    object      wallcylinder.extendedFeatureEdgeMesh;
}
// * * * * * * * * * * * * * * * * * * * * * * * * * * * * * * * * * * * * * //

// points

352
(
(-0.00415 0.012016 0.0235984)
(-0.00415 0.0112689 0.0239644)
(-0.00415 0.014183 0.0223623)
(-0.00415 0.0134737 0.022797)
(-0.00415 0.0148783 0.0219056)
(-0.00415 0.0155589 0.0214272)
(-0.00415 0.0162242 0.0209278)
(-0.00415 0.0127511 0.0232091)
(-0.00415 0.0168734 0.0204076)
(-0.00415 0.017506 0.0198674)
(-0.00415 0.0181213 0.0193075)
(-0.00415 0.0187187 0.0187285)
(-0.00415 0.0105107 0.0243067)
(-0.00415 0.0227871 0.0134836)
(-0.00415 0.0223524 0.0141929)
(-0.00415 0.0203977 0.0168833)
(-0.00415 0.0198575 0.0175159)
(-0.00415 0.0264617 0.0008355)
(-0.00415 0.0264225 0.0016665)
(-0.00415 0.0264617 -0.000828)
(-0.00415 0.0264747 3.8e-06)
(-0.00415 0.0262659 -0.0033152)
(-0.00415 0.0263572 -0.0024883)
(-0.00415 0.0264225 -0.001659)
(-0.00415 0.0209179 0.0162341)
(-0.00415 0.0214173 0.0155688)
(-0.00415 0.025837 0.0057804)
(-0.00415 0.0256428 0.0065893)
(-0.00415 0.0192976 0.0181312)
(-0.00415 0.0235885 0.0120258)
(-0.00415 0.0231992 0.012761)
(-0.00415 0.0260057 -0.0049583)
(-0.00415 0.0261487 -0.0041388)
(-0.00415 0.0256428 -0.0065818)
(-0.00415 0.025837 -0.0057729)
(-0.00415 0.0263572 0.0024958)
(-0.00415 0.0260057 0.0049658)
(-0.00415 0.0254233 0.0073917)
(-0.00415 0.0242968 0.0105206)
(-0.00415 0.0239545 0.0112788)
(-0.00415 0.0251787 0.0081868)
(-0.00415 0.0218957 0.0148882)
(-0.00415 0.0249092 0.0089738)
(-0.00415 0.0246152 0.009752)
(-0.00415 0.0261487 0.0041463)
(-0.00415 0.0262659 0.0033227)
(-0.00415 0.0134737 -0.0227894)
(-0.00415 0.014183 -0.0223548)
(-0.00415 0.0242968 -0.010513)
(-0.00415 0.0246152 -0.0097445)
(-0.00415 0.0227871 -0.0134761)
(-0.00415 0.0231992 -0.0127535)
(-0.00415 0.0162242 -0.0209202)
(-0.00415 0.0168734 -0.0204001)
(-0.00415 0.0235885 -0.0120183)
(-0.00415 0.0112689 -0.0239568)
(-0.00415 0.012016 -0.0235909)
(-0.00415 0.0097421 -0.0246175)
(-0.00415 0.0105107 -0.0242992)
(-0.00415 0.0148783 -0.021898)
(-0.00415 0.0155589 -0.0214197)
(-0.00415 0.017506 -0.0198598)
(-0.00415 0.0127511 -0.0232016)
(-0.00415 0.008964 -0.0249116)
(-0.00415 0.0181213 -0.0192999)
(-0.00415 0.0187187 -0.018721)
(-0.00415 0.0081769 -0.025181)
(-0.00415 0.0209179 -0.0162266)
(-0.00415 0.0214173 -0.0155613)
(-0.00415 0.0239545 -0.0112712)
(-0.00415 0.0073818 -0.0254256)
(-0.00415 0.0249092 -0.0089663)
(-0.00415 0.0251787 -0.0081793)
(-0.00415 0.0192976 -0.0181236)
(-0.00415 0.0198575 -0.0175083)
(-0.00415 0.0254233 -0.0073842)
(-0.00415 0.0203977 -0.0168758)
(-0.00415 0.0223524 -0.0141854)
(-0.00415 0.0218957 -0.0148807)
(-0.00415 -0.0089762 -0.0249116)
(-0.00415 -0.0081892 -0.025181)
(-0.00415 -0.0008379 -0.026464)
(-0.00415 -6.1e-06 -0.0264771)
(-0.00415 -0.0024982 -0.0263596)
(-0.00415 -0.0016689 -0.0264248)
(-0.00415 -0.0120282 -0.0235909)
(-0.00415 -0.0112811 -0.0239568)
(-0.00415 -0.0127634 -0.0232016)
(-0.00415 -0.013486 -0.0227894)
(-0.00415 -0.0097544 -0.0246175)
(-0.00415 -0.0041486 -0.0261511)
(-0.00415 -0.003325 -0.0262683)
(-0.00415 0.0008257 -0.026464)
(-0.00415 0.0041364 -0.0261511)
(-0.00415 0.0049559 -0.0260081)
(-0.00415 -0.0105229 -0.0242992)
(-0.00415 0.0065794 -0.0256452)
(-0.00415 -0.0148906 -0.021898)
(-0.00415 -0.0141953 -0.0223548)
(-0.00415 -0.0155712 -0.0214197)
(-0.00415 -0.0168856 -0.0204001)
(-0.00415 -0.0162364 -0.0209202)
(-0.00415 0.0016566 -0.0264248)
(-0.00415 0.002486 -0.0263596)
(-0.00415 -0.0057827 -0.0258393)
(-0.00415 -0.0049681 -0.0260081)
(-0.00415 -0.0175182 -0.0198598)
(-0.00415 0.0057705 -0.0258393)
(-0.00415 -0.0181335 -0.0192999)
(-0.00415 0.0033128 -0.0262683)
(-0.00415 -0.0065916 -0.0256452)
(-0.00415 -0.007394 -0.0254256)
(-0.00415 -0.0227993 -0.0134761)
(-0.00415 -0.0223646 -0.0141854)
(-0.00415 -0.0251909 -0.0081793)
(-0.00415 -0.0249214 -0.0089663)
(-0.00415 -0.0198697 -0.0175083)
(-0.00415 -0.0193098 -0.0181236)
(-0.00415 -0.0263694 -0.0024883)
(-0.00415 -0.0262782 -0.0033152)
(-0.00415 -0.0264739 -0.000828)
(-0.00415 -0.0264347 -0.001659)
(-0.00415 -0.0219079 -0.0148807)
(-0.00415 -0.0236007 -0.0120183)
(-0.00415 -0.0232115 -0.0127535)
(-0.00415 -0.0246274 -0.0097445)
(-0.00415 -0.0261609 -0.0041388)
(-0.00415 -0.0187309 -0.018721)
(-0.00415 -0.0264868 3.8e-06)
(-0.00415 -0.0214296 -0.0155613)
(-0.00415 -0.0209301 -0.0162266)
(-0.00415 -0.0264739 0.0008355)
(-0.00415 -0.0260179 -0.0049583)
(-0.00415 -0.0258492 -0.0057729)
(-0.00415 -0.0264347 0.0016665)
(-0.00415 -0.0243091 -0.010513)
(-0.00415 -0.0239667 -0.0112712)
(-0.00415 -0.02041 -0.0168758)
(-0.00415 -0.0254355 -0.0073842)
(-0.00415 -0.025655 -0.0065818)
(-0.00415 -0.0236007 0.0120258)
(-0.00415 -0.0239667 0.0112788)
(-0.00415 -0.0263694 0.0024958)
(-0.00415 -0.0254355 0.0073917)
(-0.00415 -0.025655 0.0065893)
(-0.00415 -0.0260179 0.0049658)
(-0.00415 -0.0261609 0.0041463)
(-0.00415 -0.0262782 0.0033227)
(-0.00415 -0.0246274 0.009752)
(-0.00415 -0.0249214 0.0089738)
(-0.00415 -0.0181335 0.0193075)
(-0.00415 -0.0187309 0.0187285)
(-0.00415 -0.0148906 0.0219056)
(-0.00415 -0.0155712 0.0214272)
(-0.00415 -0.0214296 0.0155688)
(-0.00415 -0.0219079 0.0148882)
(-0.00415 -0.0193098 0.0181312)
(-0.00415 -0.0198697 0.0175159)
(-0.00415 -0.0175182 0.0198674)
(-0.00415 -0.0258492 0.0057804)
(-0.00415 -0.02041 0.0168833)
(-0.00415 -0.0223646 0.0141929)
(-0.00415 -0.0227993 0.0134836)
(-0.00415 -0.0251909 0.0081868)
(-0.00415 -0.0162364 0.0209278)
(-0.00415 -0.0168856 0.0204076)
(-0.00415 -0.0141953 0.0223623)
(-0.00415 -0.013486 0.022797)
(-0.00415 -0.0127634 0.0232091)
(-0.00415 -0.0120282 0.0235984)
(-0.00415 -0.0209301 0.0162341)
(-0.00415 -0.0243091 0.0105206)
(-0.00415 -0.0232115 0.012761)
(-0.00415 -6.1e-06 0.0264846)
(-0.00415 -0.0008379 0.0264716)
(-0.00415 0.0041364 0.0261586)
(-0.00415 0.0033128 0.0262758)
(-0.00415 -0.0105229 0.0243067)
(-0.00415 -0.0112811 0.0239644)
(-0.00415 0.0057705 0.0258469)
(-0.00415 0.0049559 0.0260156)
(-0.00415 -0.0065916 0.0256527)
(-0.00415 -0.007394 0.0254332)
(-0.00415 0.0097421 0.024625)
(-0.00415 0.008964 0.0249191)
(-0.00415 -0.0057827 0.0258469)
(-0.00415 -0.0016689 0.0264324)
(-0.00415 -0.0024982 0.0263671)
(-0.00415 0.0081769 0.0251886)
(-0.00415 0.0073818 0.0254332)
(-0.00415 0.002486 0.0263671)
(-0.00415 0.0016566 0.0264324)
(-0.00415 -0.0081892 0.0251886)
(-0.00415 -0.0089762 0.0249191)
(-0.00415 0.0008257 0.0264716)
(-0.00415 -0.0049681 0.0260156)
(-0.00415 -0.0041486 0.0261586)
(-0.00415 -0.003325 0.0262758)
(-0.00415 -0.0097544 0.024625)
(-0.00415 0.0065794 0.0256527)
(-0.0001103 -0.0001591 0.0004723)
(-0.0001103 -0.0001071 0.0004867)
(-0.0001103 -0.0004403 0.0002334)
(-0.0001103 -0.0004125 0.0002797)
(-0.0001103 -5.39e-05 0.0004954)
(-0.0001103 0 0.0004983)
(-0.0001103 -0.0004918 -8.06e-05)
(-0.0001103 -0.0004976 -2.7e-05)
(-0.0001103 -0.0004976 2.7e-05)
(-0.0001103 -0.0002092 0.0004523)
(-0.0001103 -0.0003798 0.0003226)
(-0.0001103 -0.0003427 0.0003618)
(-0.0001103 -0.0004918 8.06e-05)
(-0.0001103 -0.0004629 0.0001845)
(-0.0001103 -0.0004629 -0.0001845)
(-0.0001103 -0.0004802 -0.0001333)
(-0.0001103 -0.0003016 0.0003967)
(-0.0001103 -0.0002569 0.000427)
(-0.0001103 5.39e-05 0.0004954)
(-0.0001103 -0.0004802 0.0001333)
(-0.0001103 0 -0.0004983)
(-0.0001103 -5.39e-05 -0.0004954)
(-0.0001103 5.39e-05 -0.0004954)
(-0.0001103 -0.0001591 -0.0004723)
(-0.0001103 -0.0002092 -0.0004523)
(-0.0001103 -0.0003798 -0.0003226)
(-0.0001103 -0.0004125 -0.0002797)
(-0.0001103 -0.0004403 -0.0002334)
(-0.0001103 -0.0001071 -0.0004867)
(-0.0001103 -0.0002569 -0.000427)
(-0.0001103 -0.0003016 -0.0003967)
(-0.0001103 -0.0003427 -0.0003618)
(-0.0001103 0.0001071 0.0004867)
(-0.0001103 0.0001591 0.0004723)
(-0.0001103 0.0002092 0.0004523)
(-0.0001103 0.0002569 0.000427)
(-0.0001103 0.0003016 0.0003967)
(-0.0001103 0.0003427 0.0003618)
(-0.0001103 0.0004976 -2.7e-05)
(-0.0001103 0.0004918 -8.06e-05)
(-0.0001103 0.0003016 -0.0003967)
(-0.0001103 0.0002569 -0.000427)
(-0.0001103 0.0004125 0.0002797)
(-0.0001103 0.0004403 0.0002334)
(-0.0001103 0.0003427 -0.0003618)
(-0.0001103 0.0004125 -0.0002797)
(-0.0001103 0.0003798 -0.0003226)
(-0.0001103 0.0001591 -0.0004723)
(-0.0001103 0.0001071 -0.0004867)
(-0.0001103 0.0004629 0.0001845)
(-0.0001103 0.0004802 0.0001333)
(-0.0001103 0.0003798 0.0003226)
(-0.0001103 0.0004802 -0.0001333)
(-0.0001103 0.0004403 -0.0002334)
(-0.0001103 0.0004976 2.7e-05)
(-0.0001103 0.0002092 -0.0004523)
(-0.0001103 0.0004918 8.06e-05)
(-0.0001103 0.0004629 -0.0001845)
(-0.0041427 0.0015821 0.0031309)
(-0.0041427 0.0017878 0.0030182)
(-0.0041427 0.0019852 0.0028921)
(-0.0041427 0.0021741 0.002753)
(-0.0041427 0.002353 0.0026017)
(-0.0041427 0.0025217 0.0024386)
(-0.0041427 0.0013695 0.0032296)
(-0.0041427 0.0028242 0.0020807)
(-0.0041427 0.0029568 0.0018876)
(-0.0041427 0.003506 0.0001174)
(-0.0041427 0.003506 -0.0001174)
(-0.0041427 0.0032736 0.0012607)
(-0.0041427 0.0033504 0.0010394)
(-0.0041427 0.0034903 0.000351)
(-0.0041427 0.0034903 -0.000351)
(-0.0041427 0.003182 0.0014767)
(-0.0041427 0.0030764 0.0016857)
(-0.0041427 0.0034124 0.0008131)
(-0.0041427 0.0026788 0.0022649)
(-0.0041427 0.0034591 0.0005836)
(-0.0041427 0.0034591 -0.0005836)
(-0.0041427 0.0034124 -0.0008131)
(-0.0041427 0.0029568 -0.0018876)
(-0.0041427 0.0028242 -0.0020807)
(-0.0041427 0.0032736 -0.0012607)
(-0.0041427 0.003182 -0.0014767)
(-0.0041427 0.0021741 -0.002753)
(-0.0041427 0.0019852 -0.0028921)
(-0.0041427 0.0017878 -0.0030182)
(-0.0041427 0.0015821 -0.0031309)
(-0.0041427 0.0013695 -0.0032296)
(-0.0041427 0.0011507 -0.0033138)
(-0.0041427 0.002353 -0.0026017)
(-0.0041427 0.0030764 -0.0016857)
(-0.0041427 0.0033504 -0.0010394)
(-0.0041427 0.0009268 -0.0033833)
(-0.0041427 0.0026788 -0.0022649)
(-0.0041427 0.0025217 -0.0024386)
(-0.0041427 -0.0004676 -0.0034767)
(-0.0041427 -0.0006987 -0.0034376)
(-0.0041427 0.0006987 -0.0034376)
(-0.0041427 0.0004676 -0.0034767)
(-0.0041427 -0.0009268 -0.0033833)
(-0.0041427 -0.0011507 -0.0033138)
(-0.0041427 -0.0017878 -0.0030182)
(-0.0041427 -0.0019852 -0.0028921)
(-0.0041427 -0.0021741 -0.002753)
(-0.0041427 0.0002349 -0.0035001)
(-0.0041427 -0.002353 -0.0026017)
(-0.0041427 -0.0013695 -0.0032296)
(-0.0041427 -0.0015821 -0.0031309)
(-0.0041427 0 -0.003508)
(-0.0041427 -0.0002349 -0.0035001)
(-0.0041427 -0.0034591 -0.0005836)
(-0.0041427 -0.0034903 -0.000351)
(-0.0041427 -0.0033504 -0.0010394)
(-0.0041427 -0.0034124 -0.0008131)
(-0.0041427 -0.003182 -0.0014767)
(-0.0041427 -0.0032736 -0.0012607)
(-0.0041427 -0.003506 -0.0001174)
(-0.0041427 -0.003506 0.0001174)
(-0.0041427 -0.0025217 -0.0024386)
(-0.0041427 -0.0026788 -0.0022649)
(-0.0041427 -0.0028242 -0.0020807)
(-0.0041427 -0.0029568 -0.0018876)
(-0.0041427 -0.0030764 -0.0016857)
(-0.0041427 -0.0034903 0.000351)
(-0.0041427 -0.0034591 0.0005836)
(-0.0041427 -0.0019852 0.0028921)
(-0.0041427 -0.0017878 0.0030182)
(-0.0041427 -0.0034124 0.0008131)
(-0.0041427 -0.0033504 0.0010394)
(-0.0041427 -0.0032736 0.0012607)
(-0.0041427 -0.002353 0.0026017)
(-0.0041427 -0.0021741 0.002753)
(-0.0041427 -0.0030764 0.0016857)
(-0.0041427 -0.0029568 0.0018876)
(-0.0041427 -0.0028242 0.0020807)
(-0.0041427 -0.0026788 0.0022649)
(-0.0041427 -0.003182 0.0014767)
(-0.0041427 -0.0015821 0.0031309)
(-0.0041427 -0.0025217 0.0024386)
(-0.0041427 -0.0013695 0.0032296)
(-0.0041427 0.0002349 0.0035001)
(-0.0041427 0.0004676 0.0034767)
(-0.0041427 0.0006987 0.0034376)
(-0.0041427 0.0009268 0.0033833)
(-0.0041427 -0.0004676 0.0034767)
(-0.0041427 -0.0002349 0.0035001)
(-0.0041427 0 0.003508)
(-0.0041427 -0.0006987 0.0034376)
(-0.0041427 -0.0011507 0.0033138)
(-0.0041427 -0.0009268 0.0033833)
(-0.0041427 0.0011507 0.0033138)
)

// edges

352
(
(258 259)
(259 260)
(261 262)
(262 263)
(264 258)
(260 261)
(265 266)
(267 268)
(269 270)
(271 267)
(268 272)
(273 269)
(266 274)
(270 275)
(276 265)
(277 271)
(263 276)
(275 277)
(274 273)
(272 278)
(278 279)
(280 281)
(282 283)
(284 285)
(286 287)
(287 288)
(288 289)
(290 284)
(291 280)
(279 292)
(289 293)
(294 295)
(283 291)
(295 290)
(292 282)
(281 294)
(285 286)
(296 297)
(298 299)
(293 298)
(300 301)
(302 303)
(303 304)
(299 305)
(304 306)
(307 308)
(308 302)
(309 310)
(305 309)
(297 300)
(310 296)
(301 307)
(311 312)
(313 314)
(315 316)
(312 317)
(317 318)
(319 320)
(320 321)
(316 313)
(322 323)
(306 319)
(321 322)
(314 311)
(323 315)
(324 325)
(326 327)
(325 328)
(329 330)
(331 332)
(333 334)
(332 326)
(335 336)
(330 337)
(327 338)
(318 324)
(336 339)
(339 331)
(337 333)
(334 335)
(328 329)
(338 340)
(341 342)
(343 344)
(342 343)
(345 346)
(346 347)
(347 341)
(348 345)
(340 349)
(349 350)
(350 348)
(351 264)
(344 351)
(0 1)
(2 3)
(4 2)
(5 4)
(6 5)
(7 0)
(8 6)
(9 8)
(10 9)
(11 10)
(1 12)
(3 7)
(13 14)
(15 16)
(17 18)
(19 20)
(21 22)
(23 19)
(24 15)
(25 24)
(26 27)
(16 28)
(29 30)
(20 17)
(22 23)
(31 32)
(33 34)
(18 35)
(36 26)
(27 37)
(28 11)
(38 39)
(37 40)
(14 41)
(42 43)
(44 36)
(40 42)
(41 25)
(45 44)
(39 29)
(35 45)
(32 21)
(34 31)
(30 13)
(43 38)
(46 47)
(48 49)
(50 51)
(52 53)
(51 54)
(55 56)
(57 58)
(59 60)
(53 61)
(56 62)
(63 57)
(64 65)
(66 63)
(67 68)
(47 59)
(58 55)
(54 69)
(70 66)
(71 72)
(61 64)
(73 74)
(72 75)
(49 71)
(75 33)
(69 48)
(76 67)
(77 50)
(74 76)
(78 77)
(68 78)
(60 52)
(65 73)
(62 46)
(79 80)
(81 82)
(83 84)
(85 86)
(87 85)
(88 87)
(89 79)
(90 91)
(82 92)
(91 83)
(93 94)
(95 89)
(96 70)
(97 98)
(86 95)
(99 97)
(100 101)
(102 103)
(104 105)
(98 88)
(106 100)
(107 96)
(108 106)
(101 99)
(103 109)
(92 102)
(110 104)
(94 107)
(111 110)
(109 93)
(105 90)
(80 111)
(84 81)
(112 113)
(114 115)
(116 117)
(118 119)
(120 121)
(113 122)
(123 124)
(115 125)
(119 126)
(127 108)
(121 118)
(128 120)
(129 130)
(131 128)
(132 133)
(134 131)
(117 127)
(125 135)
(136 123)
(130 137)
(122 129)
(135 136)
(138 114)
(139 138)
(133 139)
(137 116)
(124 112)
(126 132)
(140 141)
(142 134)
(143 144)
(145 146)
(146 147)
(148 149)
(150 151)
(152 153)
(154 155)
(156 157)
(158 150)
(147 142)
(159 145)
(157 160)
(161 162)
(163 143)
(164 165)
(155 161)
(166 152)
(167 166)
(168 167)
(169 168)
(170 154)
(160 170)
(153 164)
(144 159)
(171 148)
(151 156)
(165 158)
(149 163)
(141 171)
(172 140)
(162 172)
(173 174)
(175 176)
(177 178)
(179 180)
(181 182)
(183 184)
(185 181)
(180 175)
(12 183)
(186 187)
(188 189)
(184 188)
(190 191)
(192 193)
(191 194)
(195 185)
(182 192)
(176 190)
(196 195)
(178 169)
(187 197)
(198 177)
(174 186)
(197 196)
(194 173)
(193 198)
(199 179)
(189 199)
(200 201)
(202 203)
(204 205)
(206 207)
(207 208)
(209 200)
(210 211)
(208 212)
(213 202)
(203 210)
(214 215)
(211 216)
(216 217)
(205 218)
(215 206)
(212 219)
(201 204)
(219 213)
(217 209)
(220 221)
(222 220)
(223 224)
(225 226)
(226 227)
(227 214)
(228 223)
(229 230)
(230 231)
(224 229)
(221 228)
(231 225)
(232 233)
(234 235)
(235 236)
(218 232)
(233 234)
(236 237)
(238 239)
(240 241)
(242 243)
(244 240)
(245 246)
(247 248)
(249 250)
(237 251)
(239 252)
(253 245)
(254 238)
(241 255)
(255 247)
(248 222)
(250 256)
(256 254)
(243 249)
(257 253)
(246 244)
(251 242)
(252 257)
)

// concaveStart mixedStart nonFeatureStart
0 0 0
// internalStart flatStart openStart multipleStart
0 94 94 352
// normals

446
(
(0.9999999 0.0001398049 0.000285379)
(0.9999999 0.0001660574 0.0002709556)
(0.9999999 0.0001744668 0.0002656159)
(0.9999999 0.0001827538 0.0002599965)
(0.9999999 0.0001907793 0.0002541561)
(0.9999999 0.0001487252 0.0002808316)
(0.9999999 0.000198729 0.0002480106)
(0.9999999 0.0002063702 0.0002416687)
(0.9999999 0.0002138977 0.0002350623)
(0.9999999 0.0002211695 0.0002281985)
(0.9999999 0.0001307552 0.0002896246)
(0.9999999 0.0001574328 0.0002760512)
(0.9999999 0.0002709917 0.0001660796)
(0.9999999 0.0002416952 0.0002063928)
(0.9999999 0.0003175225 1.497795e-05)
(0.9999999 0.0003178372 -4.967172e-06)
(0.9999999 0.0003159652 -3.488624e-05)
(0.9999999 0.0003175273 -1.497819e-05)
(0.9999999 0.0002480151 0.0001987325)
(0.9999999 0.0002541876 0.000190803)
(0.9999999 0.0003090849 7.420529e-05)
(0.9999999 0.0002350531 0.0002138893)
(0.9999999 0.0002808946 0.0001487382)
(0.9999999 0.0003178356 4.967743e-06)
(0.9999999 0.0003168936 -2.495279e-05)
(0.9999999 0.0003131582 -5.464466e-05)
(0.9999999 0.0003091085 -7.421095e-05)
(0.9999999 0.0003168855 2.495215e-05)
(0.9999999 0.0003112442 6.44572e-05)
(0.9999999 0.0003065738 8.386448e-05)
(0.9999999 0.0002282224 0.0002211915)
(0.9999999 0.0002896962 0.0001307875)
(0.9999999 0.0003038117 9.34624e-05)
(0.9999999 0.0002656545 0.0001744921)
(0.9999999 0.0002973456 0.0001123356)
(0.9999999 0.0003131406 5.464159e-05)
(0.9999999 0.0003006981 0.0001029713)
(0.9999999 0.0002600166 0.0001827679)
(0.9999999 0.0003146888 4.478141e-05)
(0.9999999 0.0002854222 0.0001398449)
(0.9999999 0.0003159538 3.488499e-05)
(0.9999999 0.0003147033 -4.478347e-05)
(0.9999999 0.0003112649 -6.446147e-05)
(0.9999999 0.0002760954 0.000157458)
(0.9999999 0.0002936419 0.0001216442)
(0.9999999 0.000166076 -0.0002710487)
(0.9999999 0.0002936732 -0.000121673)
(0.9999999 0.00027614 -0.0001574834)
(0.9999999 0.000198757 -0.0002480927)
(0.9999999 0.0002809375 -0.000148761)
(0.9999999 0.0001398157 -0.0002854781)
(0.9999999 0.0001216252 -0.0002936888)
(0.9999999 0.0001827773 -0.0002600845)
(0.9999999 0.0002064437 -0.0002417106)
(0.9999999 0.0001487682 -0.0002809127)
(0.9999999 0.0001123813 -0.0002973283)
(0.9999999 0.000221205 -0.000228274)
(0.9999999 0.0001029358 -0.0003007453)
(0.9999999 0.0002542376 -0.0001908402)
(0.9999999 0.0001745416 -0.0002656714)
(0.9999999 0.0001308262 -0.0002896969)
(0.9999999 0.0002854709 -0.0001398501)
(0.9999999 9.345918e-05 -0.0003037989)
(0.9999999 0.0003007299 -0.0001029822)
(0.9999999 0.00021395 -0.0002351198)
(0.9999999 0.0002351054 -0.0002139369)
(0.9999999 0.0003038409 -9.347137e-05)
(0.9999999 0.0002973799 -0.0001123486)
(0.9999999 0.0003066015 -8.387204e-05)
(0.9999999 0.0002897356 -0.0001308053)
(0.9999999 0.0002480654 -0.0001987735)
(0.9999999 0.000271038 -0.0001661079)
(0.9999999 0.0002417309 -0.0002064555)
(0.9999999 0.0002657021 -0.0001745234)
(0.9999999 0.0002600654 -0.0001828023)
(0.9999999 0.0001908542 -0.0002542046)
(0.9999999 0.0002282929 -0.0002212233)
(0.9999999 0.0001575063 -0.0002761139)
(0.9999999 -0.0001029298 -0.0003006894)
(0.9999999 -5.005084e-06 -0.0003178042)
(0.9999999 -2.491193e-05 -0.0003168627)
(0.9999999 -0.0001397832 -0.0002854114)
(0.9999999 -0.0001487152 -0.0002808511)
(0.9999999 -0.0001574645 -0.0002760407)
(0.9999999 -0.0001123474 -0.0002972771)
(0.9999999 -4.477753e-05 -0.0003146668)
(0.9999999 5.005126e-06 -0.0003178068)
(0.9999999 -3.488405e-05 -0.0003159071)
(0.9999999 5.463739e-05 -0.0003131124)
(0.9999999 -0.0001216139 -0.0002936233)
(0.9999999 8.390889e-05 -0.0003065957)
(0.9999999 -0.0001744903 -0.0002655932)
(0.9999999 -0.0001307976 -0.0002896335)
(0.9999999 -0.000182721 -0.0002600045)
(0.9999999 -0.0001986914 -0.00024801)
(0.9999999 2.490998e-05 -0.0003168762)
(0.9999999 -6.448974e-05 -0.0003112192)
(0.9999999 -0.0001660296 -0.0002709729)
(0.9999999 -0.0002063721 -0.0002416275)
(0.9999999 7.416333e-05 -0.0003090702)
(0.9999999 -0.0002138735 -0.0002350358)
(0.9999999 -0.0001908114 -0.0002541096)
(0.9999999 3.488609e-05 -0.0003159255)
(0.9999999 1.497903e-05 -0.0003174921)
(0.9999999 -7.415418e-05 -0.0003090319)
(0.9999999 6.449669e-05 -0.0003112528)
(0.9999999 -8.389712e-05 -0.0003065527)
(0.9999999 4.478091e-05 -0.0003146903)
(0.9999999 -5.46324e-05 -0.0003130838)
(0.9999999 -9.34338e-05 -0.0003037546)
(0.9999999 -1.497686e-05 -0.0003174842)
(0.9999999 -0.0002709153 -0.0001660327)
(0.9999999 -0.0003005791 -0.0001029298)
(0.9999999 -0.0002350131 -0.0002138529)
(0.9999999 -0.0003158019 -3.483051e-05)
(0.9999999 -0.0003173589 -1.497095e-05)
(0.9999999 -0.0002655842 -0.000174446)
(0.9999999 -0.000280821 -0.0001486608)
(0.9999999 -0.0002972322 -0.0001122928)
(0.9999999 -0.0003145321 -4.479681e-05)
(0.9999999 -0.0002211236 -0.0002281893)
(0.9999999 -0.0003167259 -2.493887e-05)
(0.9999999 -0.0003176697 -4.92614e-06)
(0.9999999 -0.0002541107 -0.0001907834)
(0.9999999 -0.000317668 4.926707e-06)
(0.9999999 -0.000311103 -6.442795e-05)
(0.9999999 -0.000317354 1.497072e-05)
(0.9999999 -0.0002282055 -0.0002211393)
(0.9999999 -0.0002935423 -0.0001215803)
(0.9999999 -0.0002853345 -0.000139784)
(0.9999999 -0.0002479805 -0.0001986677)
(0.9999999 -0.0002599699 -0.0001826967)
(0.9999999 -0.0002895805 -0.0001307736)
(0.9999999 -0.0003036865 -9.342458e-05)
(0.9999999 -0.0003064444 -8.382908e-05)
(0.9999999 -0.0003089489 -7.417263e-05)
(0.9999999 -0.0002416142 -0.0002063936)
(0.9999999 -0.0002759958 -0.0001574389)
(0.9999999 -0.0003129943 -5.461607e-05)
(0.9999999 -0.0002852858 0.0001397788)
(0.9999999 -0.0003167178 2.493824e-05)
(0.9999999 -0.0003064168 8.382153e-05)
(0.9999999 -0.0003129768 5.461301e-05)
(0.9999999 -0.0003145176 4.479474e-05)
(0.9999999 -0.0002971979 0.0001122798)
(0.9999999 -0.000221091 0.0002281167)
(0.9999999 -0.0001826975 0.0002599164)
(0.9999999 -0.0002599211 0.0001826624)
(0.9999999 -0.0002349608 0.0002138053)
(0.9999999 -0.0002138212 0.0002349783)
(0.9999999 -0.0003157906 3.482926e-05)
(0.9999999 -0.0003110824 6.442369e-05)
(0.9999999 -0.0002415786 0.0002063309)
(0.9999999 -0.0002708691 0.0001660044)
(0.9999999 -0.0003036573 9.341562e-05)
(0.9999999 -0.0001986634 0.000247928)
(0.9999999 -0.0002655366 0.0001744147)
(0.9999999 -0.0001744155 0.0002655379)
(0.9999999 -0.0001660109 0.0002708798)
(0.9999999 -0.0001573911 0.000275978)
(0.9999999 -0.0001486723 0.00028077)
(0.9999999 -0.0002540608 0.0001907462)
(0.9999999 -0.0002479302 0.0001986268)
(0.9999999 -0.0001907366 0.0002540611)
(0.9999999 -0.0003089253 7.416698e-05)
(0.9999999 -0.000293511 0.0001215516)
(0.9999999 -0.000228135 0.0002211076)
(0.9999999 -0.0002062987 0.0002415857)
(0.9999999 -0.0003005473 0.0001029189)
(0.9999999 -0.0002895411 0.0001307558)
(0.9999999 -0.0002807781 0.0001486381)
(0.9999999 -0.0002759512 0.0001574135)
(0.9999999 -4.965034e-06 0.0003177004)
(0.9999999 4.476713e-05 0.0003145885)
(0.9999999 -0.0001307266 0.0002895613)
(0.9999999 6.443978e-05 0.0003111601)
(0.9999999 -8.38348e-05 0.0003064653)
(0.9999999 0.0001123476 0.0002972373)
(0.9999999 -7.416685e-05 0.0003089246)
(0.9999999 5.461913e-05 0.0003130118)
(0.9999999 0.0001215885 0.0002936002)
(0.9999999 -2.494194e-05 0.0003167558)
(0.9999999 9.342898e-05 0.0003037031)
(0.9999999 0.0001029382 0.0003006401)
(0.9999999 2.493999e-05 0.0003167693)
(0.9999999 -0.0001029322 0.0003005841)
(0.9999999 1.497337e-05 0.0003173872)
(0.9999999 -6.443284e-05 0.0003111266)
(0.9999999 -9.340361e-05 0.0003036588)
(0.9999999 3.487476e-05 0.000315823)
(0.9999999 -5.461414e-05 0.0003129833)
(0.9999999 -0.0001397724 0.0002853123)
(0.9999999 -3.487273e-05 0.0003158046)
(0.9999999 -0.0001215772 0.0002935348)
(0.9999999 -1.49712e-05 0.0003173793)
(0.9999999 -4.476376e-05 0.000314565)
(0.9999999 4.965075e-06 0.0003177031)
(0.9999999 -0.0001123138 0.0002971861)
(0.9999999 7.4176e-05 0.0003089629)
(0.9999999 8.384654e-05 0.0003065083)
(0.8817826 -0.1258753 0.454549)
(0.8819851 -0.4040399 0.2425985)
(0.8819829 -0.02532008 0.4706007)
(0.8818636 -0.4687682 -0.05072479)
(0.8819873 -0.4712732 0)
(0.8819305 -0.1747644 0.4377854)
(0.8819203 -0.3423735 0.3240324)
(0.881982 -0.4685479 0.05070095)
(0.8819331 -0.4278866 0.1977553)
(0.8818395 -0.3750254 0.2858584)
(0.8819575 -0.4465276 -0.1508774)
(0.8819516 -0.305085 0.3592834)
(0.8819832 -0.2644328 0.3901038)
(0.8820487 0.02531347 0.4704777)
(0.8819402 -0.4603413 -0.1013278)
(0.8818704 -0.4604688 0.1013558)
(0.8819832 -0.07605985 0.4651027)
(0.8819256 -0.4465842 0.1508965)
(0.8819023 -0.2208983 0.4164759)
(0.8820487 -0.02531347 -0.4704777)
(0.8819829 0.02532008 -0.4706007)
(0.8817848 -0.1748654 -0.4380383)
(0.8819355 -0.3748827 -0.2857496)
(0.8818439 -0.4042663 -0.2427345)
(0.8819682 -0.4278268 -0.1977277)
(0.8820027 -0.1257654 -0.4541522)
(0.881917 -0.2645023 -0.3902063)
(0.8819752 -0.3050563 -0.3592496)
(0.8819308 -0.2208734 -0.4164289)
(0.8819915 -0.07605734 -0.4650874)
(0.8819427 -0.342343 -0.3240036)
(0.8820027 0.1257654 0.4541522)
(0.8819308 0.2208734 0.4164289)
(0.881917 0.2645023 0.3902063)
(0.8819915 0.07605734 0.4650874)
(0.8817848 0.1748654 0.4380383)
(0.8819752 0.3050563 0.3592496)
(0.881982 0.4685479 -0.05070095)
(0.8819832 0.2644328 -0.3901038)
(0.8818439 0.4042663 0.2427345)
(0.8819516 0.305085 -0.3592834)
(0.8818395 0.3750254 -0.2858584)
(0.8817826 0.1258753 -0.454549)
(0.8819575 0.4465276 0.1508774)
(0.8819427 0.342343 0.3240036)
(0.8818704 0.4604688 -0.1013558)
(0.8819851 0.4040399 -0.2425985)
(0.8819873 0.4712732 0)
(0.8819023 0.2208983 -0.4164759)
(0.8819305 0.1747644 -0.4377854)
(0.8819832 0.07605985 -0.4651027)
(0.8819402 0.4603413 0.1013278)
(0.8818636 0.4687682 0.05072479)
(0.8819682 0.4278268 0.1977277)
(0.8819331 0.4278866 -0.1977553)
(0.8819203 0.3423735 -0.3240324)
(0.8819355 0.3748827 0.2857496)
(0.8819256 0.4465842 -0.1508965)
(0.9999999 0.0001526634 0.0002786409)
(-3.857614e-05 0.4804945 0.8769977)
(0.9999999 0.0001710457 0.0002677592)
(-5.230171e-05 0.5383385 0.8427287)
(0.9999999 0.0002051953 0.0002426268)
(-6.273726e-05 0.645751 0.7635481)
(0.9999999 0.0002208939 0.0002284783)
(-2.475659e-06 0.6950734 0.7189388)
(0.9999999 0.0001337867 0.0002881772)
(0 0.4210858 0.9070208)
(0.9999999 0.0001884055 0.0002558576)
(0 0.592952 0.8052378)
(0.9999999 0.0002619547 0.0001798818)
(0 0.8243533 0.5660757)
(0.9999999 0.000317811 0)
(0 1 0)
(0.9999999 0.0003002468 0.0001041975)
(-5.996834e-05 0.9447271 0.3278577)
(0.9999999 0.0003170943 2.131157e-05)
(1.301468e-05 0.9977491 0.06705764)
(0.9999999 0.0003171013 -2.131203e-05)
(-6.507339e-06 0.9977491 -0.06705764)
(0.9999999 0.0002925724 0.0001240724)
(-3.788661e-05 0.9206374 0.3904186)
(0.9999999 0.0002734029 0.0001619563)
(-1.552182e-05 0.8603747 0.5096621)
(0.9999999 0.0003065439 8.398465e-05)
(-2.564164e-05 0.9644583 0.2642352)
(0.9999999 0.0002494276 0.0001968882)
(-6.019557e-05 0.784926 0.6195895)
(0.9999999 0.0003149926 4.225181e-05)
(-1.290113e-05 0.9911234 0.1329452)
(0.9999999 0.0002356858 0.0002131618)
(-7.037687e-06 0.7416574 0.6707789)
(0.9999999 0.0003114433 6.33743e-05)
(1.934993e-05 0.9799183 0.1993995)
(0.9999999 0.0002836316 0.0001433087)
(4.376237e-05 0.8925401 0.4509679)
(0.9999999 0.0003150063 -4.225364e-05)
(1.290113e-05 0.9911234 -0.1329452)
(0.9999999 0.0003114636 -6.337843e-05)
(-1.934993e-05 0.9799183 -0.1993995)
(0.9999999 0.0002620031 -0.0001799151)
(-5.499649e-05 0.8243533 -0.5660757)
(0.9999999 0.0002926102 -0.0001240885)
(3.788661e-05 0.9206374 -0.3904186)
(0.9999999 0.0001884551 -0.0002559248)
(-5.760763e-05 0.592952 -0.8052378)
(0.9999999 0.0001527071 -0.0002787207)
(0 0.4804945 -0.8769977)
(0.9999999 0.0001338269 -0.0002882637)
(0 0.4210858 -0.9070208)
(0.9999999 0.0001141461 -0.0002966166)
(-9.046091e-05 0.3591513 -0.9332793)
(0.9999999 0.0002052465 -0.0002426873)
(0 0.645751 -0.7635481)
(0.9999999 0.0002734484 -0.0001619832)
(0 0.8603747 -0.5096621)
(0.9999999 0.0003065661 -8.399072e-05)
(-6.805929e-05 0.9644583 -0.2642352)
(0.9999999 9.422228e-05 -0.0003035451)
(0 0.2964527 -0.9550476)
(0.9999999 0.0002357381 -0.0002132091)
(6.718562e-06 0.7416574 -0.6707789)
(0.9999999 0.0002836734 -0.0001433298)
(-1.0126e-06 0.8925402 -0.4509679)
(0.9999999 0.0002209365 -0.0002285224)
(-6.752913e-05 0.6950734 -0.7189388)
(0.9999999 0.000300279 -0.0001042087)
(-3.181564e-05 0.9447271 -0.3278577)
(0.9999999 0.000249478 -0.0001969281)
(-1.620309e-05 0.784926 -0.6195895)
(0.9999999 0.0001710927 -0.0002678329)
(-2.963353e-05 0.5383385 -0.8427287)
(0.9999999 -5.301247e-05 -0.0003133299)
(-9.55698e-05 -0.1668198 -0.9859874)
(0.9999999 5.301717e-05 -0.0003133576)
(0 0.1668198 -0.9859874)
(0.9999999 7.360405e-05 -0.0003091909)
(-9.429306e-05 0.2315824 -0.9728153)
(0.9999999 -9.420732e-05 -0.0003034969)
(-9.257086e-05 -0.2964527 -0.9550475)
(0.9999999 -0.0001710434 -0.0002677557)
(-5.230171e-05 -0.5383385 -0.8427287)
(0.9999999 -0.0001883952 -0.0002558436)
(-0 -0.592952 -0.8052378)
(0.9999999 3.179638e-05 -0.0003161981)
(5.825593e-05 0.1000538 -0.994982)
(0.9999999 -0.0002051761 -0.0002426041)
(-6.273726e-05 -0.645751 -0.7635481)
(0.9999999 -0.000133797 -0.0002881993)
(-0 -0.4210858 -0.9070208)
(0.9999999 -0.0001526678 -0.000278649)
(-3.857614e-05 -0.4804945 -0.8769977)
(0.9999999 -1.068113e-05 -0.000317597)
(1.95705e-05 -0.03361209 -0.999435)
(0.9999999 1.068132e-05 -0.0003176026)
(0 0.03361209 -0.999435)
(0.9999999 -7.3595e-05 -0.0003091528)
(-0 -0.2315824 -0.9728153)
(0.9999999 -3.179469e-05 -0.0003161813)
(-0 -0.1000538 -0.994982)
(0.9999999 -0.0001141242 -0.0002965595)
(-0 -0.3591513 -0.9332793)
(0.9999999 -0.0003148392 -4.223123e-05)
(-1.290113e-05 -0.9911234 -0.1329452)
(0.9999999 -0.0003064091 -8.39477e-05)
(-2.564164e-05 -0.9644583 -0.2642352)
(0.9999999 -0.000292466 -0.0001240273)
(-3.788661e-05 -0.9206374 -0.3904186)
(0.9999999 -0.0003169333 -2.130075e-05)
(1.301468e-05 -0.9977491 -0.06705764)
(0.9999999 -0.0003176437 0)
(-0 -1 0)
(0.9999999 -0.0002356452 -0.0002131252)
(-7.037687e-06 -0.7416574 -0.6707789)
(0.9999999 -0.0002493741 -0.000196846)
(-6.019557e-05 -0.784926 -0.6195895)
(0.9999999 -0.0003001283 -0.0001041564)
(-5.996834e-05 -0.9447271 -0.3278577)
(0.9999999 -0.0002733235 -0.0001619092)
(-1.552182e-05 -0.8603747 -0.5096621)
(0.9999999 -0.000220855 -0.000228438)
(-2.475659e-06 -0.6950734 -0.7189388)
(0.9999999 -0.0002618885 -0.0001798363)
(-0 -0.8243533 -0.5660757)
(0.9999999 -0.0003113015 -6.334546e-05)
(1.934993e-05 -0.9799183 -0.1993995)
(0.9999999 -0.000283539 -0.0001432619)
(4.376237e-05 -0.8925401 -0.4509679)
(0.9999999 -0.0003148255 4.22294e-05)
(1.290113e-05 -0.9911234 0.1329452)