/*--------------------------------*- C++ -*----------------------------------*\
| =========                 |                                                 |
| \\      /  F ield         | OpenFOAM: The Open Source CFD Toolbox           |
|  \\    /   O peration     | Version:  2.4.0                                 |
|   \\  /    A nd           | Web:      www.OpenFOAM.org                      |
|    \\/     M anipulation  |                                                 |
\*---------------------------------------------------------------------------*/
FoamFile
{
    version     2.0;
    format      ascii;
    class       dictionary;
    location    "system";
    object      controlDict;
}
// * * * * * * * * * * * * * * * * * * * * * * * * * * * * * * * * * * * * * //
nameOfTable	CFD_Table500_200_100v74.dat;

application     tabFoam;

startFrom       latestTime;

startTime       0;

stopAt          endTime;

endTime         2.5e-4;

deltaT          3e-10;

writeControl    adjustableRunTime;  //timeStep;

writeInterval   3e-6;//0.0001;

cycleWrite      0;

writeFormat     ascii;

writePrecision  7;

writeCompression off;

timeFormat      general;

timePrecision   6;

runTimeModifiable true;

adjustTimeStep  yes;

maxCo          0.9;

maxDeltaT        1.0e-9;

CourantType	cellCourant;


// ************************************************************************* //
